@<TRIPOS>MOLECULE
ZINC04676424
   42    44     0     0     0
SMALL
USER_CHARGES

@<TRIPOS>ATOM
      1 C1         -0.0173    1.4248    0.0099 C.3       1 <0>         0.0039
      2 O1          0.0021   -0.0041    0.0020 O.3       1 <0>        -0.2634
      3 C2         -1.1997   -0.6372    0.0101 C.ar      1 <0>         0.2357
      4 C3         -2.3874    0.0867    0.0195 C.ar      1 <0>        -0.2191
      5 C4         -3.5892   -0.5929    0.0270 C.ar      1 <0>         0.1801
      6 N1         -3.6222   -1.9117    0.0259 N.ar      1 <0>        -0.4603
      7 C5         -2.5196   -2.6368    0.0176 C.ar      1 <0>         0.1776
      8 C6         -1.2748   -2.0317    0.0033 C.ar      1 <0>         0.0675
      9 O2         -0.1418   -2.7839   -0.0111 O.3       1 <0>        -0.2911
     10 C7          0.4104   -3.1495    1.2552 C.3       1 <0>         0.0200
     11 C8         -2.6170   -4.1407    0.0172 C.3       1 <0>        -0.4713
     12 S1         -2.6681   -4.7429   -1.6932 S.o       1 <0>         1.4375
     13 O3         -1.4028   -4.5365   -2.3060 O.2       1 <0>        -0.7841
     14 C9         -2.7802   -6.4933   -1.5256 C.2       1 <0>        -0.0831
     15 N2         -1.7173   -7.3387   -1.4541 N.pl3     1 <0>        -0.5625
     16 H1         -0.7806   -7.0887   -1.4855 H         1 <0>         0.4311
     17 C10        -2.2197   -8.6204   -1.3273 C.ar      1 <0>         0.0536
     18 C11        -1.6396   -9.8764   -1.2128 C.ar      1 <0>        -0.0783
     19 C12        -2.4376  -10.9938   -1.0996 C.ar      1 <0>        -0.1408
     20 C13        -3.8245  -10.8722   -1.0998 C.ar      1 <0>         0.1039
     21 C14        -4.4170   -9.6307   -1.2133 C.ar      1 <0>        -0.0743
     22 C15        -3.6182   -8.4895   -1.3278 C.ar      1 <0>         0.0657
     23 N3         -3.8919   -7.1648   -1.4467 N.2       1 <0>        -0.4016
     24 O4         -4.6003  -11.9833   -0.9878 O.3       1 <0>        -0.3140
     25 C16        -3.9247  -13.2374   -0.8742 C.3       1 <0>         0.4119
     26 F1         -3.1325  -13.4448   -2.0085 F         1 <0>        -0.1956
     27 F2         -3.1137  -13.2287    0.2657 F         1 <0>        -0.1966
     28 H2          1.0053    1.8021    0.0021 H         1 <0>         0.1299
     29 H3         -0.5445    1.7859   -0.8732 H         1 <0>         0.0810
     30 H4         -0.5275    1.7763    0.9067 H         1 <0>         0.0794
     31 H5         -2.3698    1.1666    0.0212 H         1 <0>         0.1954
     32 H6         -4.5152   -0.0371    0.0343 H         1 <0>         0.2238
     33 H7         -0.3207   -3.7319    1.8158 H         1 <0>         0.0564
     34 H8          1.3093   -3.7464    1.1009 H         1 <0>         0.1186
     35 H9          0.6638   -2.2490    1.8147 H         1 <0>         0.0652
     36 H10        -1.7487   -4.5611    0.5246 H         1 <0>         0.1454
     37 H11        -3.5249   -4.4461    0.5372 H         1 <0>         0.1675
     38 H12        -0.5643   -9.9775   -1.2128 H         1 <0>         0.1386
     39 H13        -1.9845  -11.9701   -1.0106 H         1 <0>         0.1495
     40 H14        -5.4933   -9.5415   -1.2136 H         1 <0>         0.1516
     41 H15        -4.6584  -14.0393   -0.7920 H         1 <0>         0.1892
     42 H16        -4.4817   -2.3614    0.0316 H         1 <0>         0.4561
@<TRIPOS>BOND
     1    1    2 1
     2    1   28 1
     3    1   29 1
     4    1   30 1
     5    2    3 1
     6    3    8 ar
     7    3    4 ar
     8    4    5 ar
     9    4   31 1
    10    5    6 ar
    11    5   32 1
    12    6    7 ar
    13    6   42 1
    14    7    8 ar
    15    7   11 1
    16    8    9 1
    17    9   10 1
    18   10   33 1
    19   10   34 1
    20   10   35 1
    21   11   12 1
    22   11   36 1
    23   11   37 1
    24   12   13 2
    25   12   14 1
    26   14   23 2
    27   14   15 1
    28   15   16 1
    29   15   17 1
    30   17   22 ar
    31   17   18 ar
    32   18   19 ar
    33   18   38 1
    34   19   20 ar
    35   19   39 1
    36   20   21 ar
    37   20   24 1
    38   21   22 ar
    39   21   40 1
    40   22   23 1
    41   24   25 1
    42   25   26 1
    43   25   27 1
    44   25   41 1
@<TRIPOS>MOLECULE
ZINC04099200
   42    44     0     0     0
SMALL
USER_CHARGES

@<TRIPOS>ATOM
      1 C1         -0.0173    1.4248    0.0099 C.3       1 <0>         0.0036
      2 O1          0.0021   -0.0041    0.0020 O.3       1 <0>        -0.2620
      3 C2         -1.1997   -0.6372    0.0101 C.ar      1 <0>         0.2374
      4 C3         -2.3874    0.0867    0.0195 C.ar      1 <0>        -0.2184
      5 C4         -3.5892   -0.5929    0.0270 C.ar      1 <0>         0.1819
      6 N1         -3.6222   -1.9117    0.0259 N.ar      1 <0>        -0.4622
      7 C5         -2.5196   -2.6368    0.0176 C.ar      1 <0>         0.1809
      8 C6         -1.2748   -2.0317    0.0033 C.ar      1 <0>         0.0655
      9 O2         -0.1418   -2.7839   -0.0111 O.3       1 <0>        -0.2948
     10 C7          0.4104   -3.1495    1.2552 C.3       1 <0>         0.0179
     11 C8         -2.6170   -4.1407    0.0172 C.3       1 <0>        -0.4691
     12 S1         -2.6681   -4.7429   -1.6932 S.o       1 <0>         1.4345
     13 O3         -3.9049   -4.3746   -2.2882 O.2       1 <0>        -0.7795
     14 C9         -2.7802   -6.4933   -1.5256 C.2       1 <0>        -0.0855
     15 N2         -1.7173   -7.3387   -1.4541 N.pl3     1 <0>        -0.5528
     16 H1         -0.7806   -7.0887   -1.4855 H         1 <0>         0.4329
     17 C10        -2.2197   -8.6204   -1.3273 C.ar      1 <0>         0.0564
     18 C11        -1.6396   -9.8764   -1.2128 C.ar      1 <0>        -0.0766
     19 C12        -2.4376  -10.9938   -1.0996 C.ar      1 <0>        -0.1413
     20 C13        -3.8245  -10.8722   -1.0998 C.ar      1 <0>         0.1038
     21 C14        -4.4170   -9.6307   -1.2133 C.ar      1 <0>        -0.0759
     22 C15        -3.6182   -8.4895   -1.3278 C.ar      1 <0>         0.0623
     23 N3         -3.8919   -7.1648   -1.4467 N.2       1 <0>        -0.4136
     24 O4         -4.6003  -11.9833   -0.9878 O.3       1 <0>        -0.3149
     25 C16        -3.9247  -13.2374   -0.8742 C.3       1 <0>         0.4121
     26 F1         -3.1325  -13.4448   -2.0085 F         1 <0>        -0.1955
     27 F2         -3.1137  -13.2287    0.2657 F         1 <0>        -0.1964
     28 H2          1.0053    1.8021    0.0021 H         1 <0>         0.1307
     29 H3         -0.5445    1.7859   -0.8732 H         1 <0>         0.0808
     30 H4         -0.5275    1.7763    0.9067 H         1 <0>         0.0789
     31 H5         -2.3698    1.1666    0.0212 H         1 <0>         0.1959
     32 H6         -4.5152   -0.0371    0.0343 H         1 <0>         0.2205
     33 H7         -0.3207   -3.7319    1.8158 H         1 <0>         0.0591
     34 H8          1.3093   -3.7464    1.1009 H         1 <0>         0.1233
     35 H9          0.6638   -2.2490    1.8147 H         1 <0>         0.0642
     36 H10        -1.7487   -4.5611    0.5246 H         1 <0>         0.1710
     37 H11        -3.5249   -4.4461    0.5372 H         1 <0>         0.1415
     38 H12        -0.5643   -9.9775   -1.2128 H         1 <0>         0.1421
     39 H13        -1.9845  -11.9701   -1.0106 H         1 <0>         0.1501
     40 H14        -5.4933   -9.5415   -1.2136 H         1 <0>         0.1477
     41 H15        -4.6585  -14.0393   -0.7920 H         1 <0>         0.1888
     42 H16        -4.4817   -2.3614    0.0316 H         1 <0>         0.4547
@<TRIPOS>BOND
     1    1    2 1
     2    1   28 1
     3    1   29 1
     4    1   30 1
     5    2    3 1
     6    3    8 ar
     7    3    4 ar
     8    4    5 ar
     9    4   31 1
    10    5    6 ar
    11    5   32 1
    12    6    7 ar
    13    6   42 1
    14    7    8 ar
    15    7   11 1
    16    8    9 1
    17    9   10 1
    18   10   33 1
    19   10   34 1
    20   10   35 1
    21   11   12 1
    22   11   36 1
    23   11   37 1
    24   12   13 2
    25   12   14 1
    26   14   23 2
    27   14   15 1
    28   15   16 1
    29   15   17 1
    30   17   22 ar
    31   17   18 ar
    32   18   19 ar
    33   18   38 1
    34   19   20 ar
    35   19   39 1
    36   20   21 ar
    37   20   24 1
    38   21   22 ar
    39   21   40 1
    40   22   23 1
    41   24   25 1
    42   25   26 1
    43   25   27 1
    44   25   41 1
@<TRIPOS>MOLECULE
ZINC18115268
   33    33     0     0     0
SMALL
USER_CHARGES

@<TRIPOS>ATOM
      1 C1         -0.0365    1.5010    0.0011 C.3       1 <0>        -0.0820
      2 C2         -0.0079   -0.0057   -0.0034 C.2       1 <0>         0.0046
      3 C3          0.0049   -0.8052   -1.0870 C.2       1 <0>         0.0062
      4 N1          0.0299   -2.0776   -0.6636 N.2       1 <0>        -0.4775
      5 C4          0.0331   -2.0970    0.6412 C.2       1 <0>         0.1912
      6 N2          0.0160   -0.8246    1.0932 N.pl3     1 <0>        -0.5667
      7 C5         -0.0069   -0.3499   -2.5235 C.3       1 <0>         0.0056
      8 S1          1.6984   -0.1349   -3.1036 S.3       1 <0>        -0.2246
      9 C6          1.5114    0.4074   -4.8246 C.3       1 <0>        -0.1100
     10 C7          2.8934    0.6285   -5.4426 C.3       1 <0>         0.1240
     11 N3          2.7424    1.0664   -6.8325 N.pl3     1 <0>        -0.7512
     12 C8          3.8492    1.4270   -7.5637 C.2       1 <0>         0.6199
     13 N4          3.7071    1.9124   -8.7639 N.2       1 <0>        -0.6375
     14 C9          2.3670    2.1805   -9.2916 C.3       1 <0>         0.0441
     15 N5          5.1106    1.2747   -7.0262 N.pl3     1 <0>        -0.5929
     16 C10         6.2016    1.6301   -7.7469 C.1       1 <0>         0.4348
     17 N6          7.1163    1.9281   -8.3511 N.1       1 <0>        -0.3988
     18 H1          0.9841    1.8838   -0.0052 H         1 <0>         0.0805
     19 H2         -0.5635    1.8571   -0.8841 H         1 <0>         0.0825
     20 H3         -0.5506    1.8520    0.8958 H         1 <0>         0.0676
     21 H4          0.0507   -2.9838    1.2575 H         1 <0>         0.2122
     22 H5         -0.5079   -1.0981   -3.1377 H         1 <0>         0.0956
     23 H6         -0.5389    0.5984   -2.5998 H         1 <0>         0.0930
     24 H7          0.9784   -0.3568   -5.3904 H         1 <0>         0.0906
     25 H8          0.9474    1.3397   -4.8525 H         1 <0>         0.0901
     26 H9          3.4264    1.3927   -4.8768 H         1 <0>         0.0785
     27 H10         3.4574   -0.3038   -5.4147 H         1 <0>         0.0765
     28 H11         1.8614    1.1020   -7.2368 H         1 <0>         0.4170
     29 H12         1.8229    1.2418   -9.3956 H         1 <0>         0.0440
     30 H13         1.8312    2.8370   -8.6060 H         1 <0>         0.0436
     31 H14         2.4498    2.6623  -10.2658 H         1 <0>         0.0807
     32 H15         5.2165    0.9132   -6.1323 H         1 <0>         0.4360
     33 H16         0.0181   -0.5434    2.0216 H         1 <0>         0.4225
@<TRIPOS>BOND
     1    1    2 1
     2    1   18 1
     3    1   19 1
     4    1   20 1
     5    2    6 1
     6    2    3 2
     7    3    4 1
     8    3    7 1
     9    4    5 2
    10    5    6 1
    11    5   21 1
    12    6   33 1
    13    7    8 1
    14    7   22 1
    15    7   23 1
    16    8    9 1
    17    9   10 1
    18    9   24 1
    19    9   25 1
    20   10   11 1
    21   10   26 1
    22   10   27 1
    23   11   12 1
    24   11   28 1
    25   12   13 2
    26   12   15 1
    27   13   14 1
    28   14   29 1
    29   14   30 1
    30   14   31 1
    31   15   16 1
    32   15   32 1
    33   16   17 3
@<TRIPOS>MOLECULE
ZINC18115268
   33    33     0     0     0
SMALL
USER_CHARGES

@<TRIPOS>ATOM
      1 C1         -0.0364    1.5010    0.0011 C.3       1 <0>        -0.0727
      2 C2         -0.0079   -0.0057   -0.0033 C.2       1 <0>         0.0386
      3 C3          0.0047   -0.7937   -1.0953 C.2       1 <0>        -0.0274
      4 N1          0.0310   -2.0877   -0.6496 N.pl3     1 <0>        -0.5622
      5 H1          0.0451   -2.8860   -1.2004 H         1 <0>         0.4215
      6 C4          0.0337   -2.0453    0.7002 C.2       1 <0>         0.2052
      7 N2          0.0154   -0.7968    1.0796 N.2       1 <0>        -0.4916
      8 C5         -0.0083   -0.3385   -2.5318 C.3       1 <0>        -0.0058
      9 S1          1.6964   -0.1220   -3.1130 S.3       1 <0>        -0.2251
     10 C6          1.5079    0.4200   -4.8338 C.3       1 <0>        -0.1097
     11 C7          2.8893    0.6423   -5.4527 C.3       1 <0>         0.1238
     12 N3          2.7371    1.0801   -6.8425 N.pl3     1 <0>        -0.7516
     13 C8          3.8432    1.4416   -7.5744 C.2       1 <0>         0.6197
     14 N4          3.6999    1.9268   -8.7745 N.2       1 <0>        -0.6359
     15 C9          2.3592    2.1939   -9.3014 C.3       1 <0>         0.0438
     16 N5          5.1050    1.2903   -7.0376 N.pl3     1 <0>        -0.5928
     17 C10         6.1953    1.6466   -7.7590 C.1       1 <0>         0.4341
     18 N6          7.1093    1.9453   -8.3638 N.1       1 <0>        -0.3972
     19 H2          0.9842    1.8838   -0.0052 H         1 <0>         0.0750
     20 H3         -0.5635    1.8571   -0.8841 H         1 <0>         0.0671
     21 H4         -0.5506    1.8521    0.8959 H         1 <0>         0.0732
     22 H5          0.0520   -2.9025    1.3568 H         1 <0>         0.2131
     23 H6         -0.5092   -1.0871   -3.1457 H         1 <0>         0.0896
     24 H7         -0.5412    0.6093   -2.6078 H         1 <0>         0.1068
     25 H8          0.9752   -0.3445   -5.3993 H         1 <0>         0.0900
     26 H9          0.9431    1.3519   -4.8614 H         1 <0>         0.0931
     27 H10         3.4220    1.4069   -4.8872 H         1 <0>         0.0801
     28 H11         3.4541   -0.2896   -5.4251 H         1 <0>         0.0757
     29 H12         1.8558    1.1149   -7.2462 H         1 <0>         0.4170
     30 H13         2.4411    2.6757  -10.2757 H         1 <0>         0.0813
     31 H14         1.8159    1.2547   -9.4050 H         1 <0>         0.0437
     32 H15         1.8233    2.8499   -8.6154 H         1 <0>         0.0441
     33 H16         5.2118    0.9289   -6.1438 H         1 <0>         0.4357
@<TRIPOS>BOND
     1    1    2 1
     2    1   19 1
     3    1   20 1
     4    1   21 1
     5    2    7 1
     6    2    3 2
     7    3    4 1
     8    3    8 1
     9    4    5 1
    10    4    6 1
    11    6    7 2
    12    6   22 1
    13    8    9 1
    14    8   23 1
    15    8   24 1
    16    9   10 1
    17   10   11 1
    18   10   25 1
    19   10   26 1
    20   11   12 1
    21   11   27 1
    22   11   28 1
    23   12   13 1
    24   12   29 1
    25   13   14 2
    26   13   16 1
    27   14   15 1
    28   15   30 1
    29   15   31 1
    30   15   32 1
    31   16   17 1
    32   16   33 1
    33   17   18 3
@<TRIPOS>MOLECULE
ZINC03871612
   44    46     0     0     0
SMALL
USER_CHARGES

@<TRIPOS>ATOM
      1 C1         -0.0158    1.3119    0.0093 C.ar      1 <0>         0.3451
      2 N1          1.0888    2.0360    0.0026 N.ar      1 <0>        -0.5996
      3 C2          2.2875    1.4625   -0.0119 C.ar      1 <0>         0.5023
      4 C3          2.3582    0.0588   -0.0202 C.ar      1 <0>        -0.0972
      5 C4          1.1547   -0.6659   -0.0126 C.ar      1 <0>         0.2990
      6 N2          0.0021   -0.0041    0.0020 N.ar      1 <0>        -0.5547
      7 N3          1.5110   -1.9908   -0.0227 N.pl3     1 <0>        -0.4482
      8 C5          2.8729   -2.0476   -0.0358 C.2       1 <0>         0.3084
      9 N4          3.3680   -0.8441   -0.0343 N.2       1 <0>        -0.4786
     10 C6          0.5956   -3.1347   -0.0195 C.3       1 <0>         0.3043
     11 H1         -0.2948   -2.9088   -0.6062 H         1 <0>         0.1190
     12 C7          0.2056   -3.5073    1.4281 C.3       1 <0>         0.0353
     13 H2         -0.7650   -3.0823    1.6836 H         1 <0>         0.0861
     14 C8          0.1336   -5.0506    1.4120 C.3       1 <0>         0.0469
     15 H3         -0.8727   -5.3886    1.6595 H         1 <0>         0.0884
     16 C9          0.4885   -5.4278   -0.0434 C.3       1 <0>         0.0849
     17 H4         -0.4185   -5.5556   -0.6343 H         1 <0>         0.1023
     18 O1          1.2562   -4.3087   -0.5401 O.3       1 <0>        -0.3366
     19 C10         1.3266   -6.7075   -0.0727 C.3       1 <0>         0.1500
     20 O2          1.5454   -7.1027   -1.4284 O.3       1 <0>        -0.7684
     21 P1          2.3911   -8.4111   -1.8348 P.3       1 <0>         2.2899
     22 O3          3.7917   -8.3409   -1.1864 O.2       1 <0>        -1.0985
     23 O4          1.6555   -9.6751   -1.3365 O.3       1 <0>        -1.1121
     24 O5          2.5438   -8.4754   -3.4363 O.3       1 <0>        -1.0984
     25 P2          3.4893   -9.3099   -4.4370 P.3       1 <0>         2.3539
     26 O6          4.9164   -9.3898   -3.8504 O.2       1 <0>        -1.1049
     27 O7          2.9232  -10.7369   -4.6104 O.3       1 <0>        -1.1160
     28 O8          3.5378   -8.5742   -5.8682 O.3       1 <0>        -1.0987
     29 P3          4.4932   -8.6988   -7.1581 P.3       1 <0>         2.2758
     30 O9          4.7232  -10.1909   -7.4863 O.2       1 <0>        -1.1169
     31 O10         3.7952   -7.9742   -8.4150 O.3       1 <0>        -0.9091
     32 O11         5.8499   -8.0217   -6.8614 O.3       1 <0>        -1.1163
     33 O12         1.0849   -5.6059    2.3223 O.3       1 <0>        -0.5215
     34 O13         1.2044   -3.0595    2.3467 O.3       1 <0>        -0.5305
     35 N5          3.4393    2.2295   -0.0193 N.pl3     1 <0>        -0.8232
     36 H5         -0.9693    1.8187    0.0257 H         1 <0>         0.1983
     37 H6          3.4551   -2.9572   -0.0459 H         1 <0>         0.2283
     38 H7          2.2858   -6.5248    0.4118 H         1 <0>         0.0733
     39 H8          0.7977   -7.5004    0.4561 H         1 <0>         0.0702
     40 H9          0.9424   -5.3509    3.2441 H         1 <0>         0.3688
     41 H10         1.0102   -3.2674    3.2710 H         1 <0>         0.3758
     42 H11         3.3774    3.1975   -0.0138 H         1 <0>         0.4047
     43 H12         4.3085    1.7992   -0.0299 H         1 <0>         0.4189
     44 H13         4.3162   -8.0103   -9.2289 H         1 <0>         0.3997
@<TRIPOS>BOND
     1    1    6 ar
     2    1    2 ar
     3    1   36 1
     4    2    3 ar
     5    3    4 ar
     6    3   35 1
     7    4    9 1
     8    4    5 ar
     9    5    6 ar
    10    5    7 1
    11    7    8 1
    12    7   10 1
    13    8    9 2
    14    8   37 1
    15   10   11 1
    16   10   18 1
    17   10   12 1
    18   12   13 1
    19   12   14 1
    20   12   34 1
    21   14   15 1
    22   14   16 1
    23   14   33 1
    24   16   17 1
    25   16   18 1
    26   16   19 1
    27   19   20 1
    28   19   38 1
    29   19   39 1
    30   20   21 1
    31   21   22 2
    32   21   23 1
    33   21   24 1
    34   24   25 1
    35   25   26 2
    36   25   27 1
    37   25   28 1
    38   28   29 1
    39   29   30 2
    40   29   31 1
    41   29   32 1
    42   31   44 1
    43   33   40 1
    44   34   41 1
    45   35   42 1
    46   35   43 1
@<TRIPOS>MOLECULE
ZINC03871613
   44    46     0     0     0
SMALL
USER_CHARGES

@<TRIPOS>ATOM
      1 C1         -0.0158    1.3119    0.0093 C.ar      1 <0>         0.3495
      2 N1          1.0888    2.0360    0.0026 N.ar      1 <0>        -0.5978
      3 C2          2.2875    1.4625   -0.0119 C.ar      1 <0>         0.5024
      4 C3          2.3582    0.0588   -0.0202 C.ar      1 <0>        -0.1063
      5 C4          1.1547   -0.6659   -0.0126 C.ar      1 <0>         0.3106
      6 N2          0.0021   -0.0041    0.0020 N.ar      1 <0>        -0.5367
      7 N3          1.5110   -1.9908   -0.0227 N.pl3     1 <0>        -0.4645
      8 C5          2.8729   -2.0476   -0.0358 C.2       1 <0>         0.2762
      9 N4          3.3680   -0.8441   -0.0343 N.2       1 <0>        -0.4732
     10 C6          0.5956   -3.1347   -0.0195 C.3       1 <0>         0.3120
     11 H1         -0.2828   -2.9138    0.5869 H         1 <0>         0.1272
     12 C7          0.1740   -3.4901   -1.4675 C.3       1 <0>         0.0351
     13 H2          1.0049   -3.3620   -2.1613 H         1 <0>         0.0862
     14 C8         -0.1950   -4.9902   -1.3073 C.3       1 <0>         0.0502
     15 H3         -0.0494   -5.5277   -2.2442 H         1 <0>         0.0923
     16 C9          0.8144   -5.4637   -0.2395 C.3       1 <0>         0.0869
     17 H4          1.6612   -5.9520   -0.7219 H         1 <0>         0.1136
     18 O1          1.2628   -4.3057    0.4773 O.3       1 <0>        -0.3402
     19 C10         0.1329   -6.4383    0.7231 C.3       1 <0>         0.1347
     20 O2          1.1002   -6.9608    1.6360 O.3       1 <0>        -0.7666
     21 P1          0.7326   -8.0191    2.7923 P.3       1 <0>         2.2896
     22 O3         -0.4070   -7.4509    3.6672 O.2       1 <0>        -1.0997
     23 O4          0.2746   -9.3468    2.1485 O.3       1 <0>        -1.1124
     24 O5          2.0299   -8.2860    3.7076 O.3       1 <0>        -1.0982
     25 P2          2.2605   -8.9606    5.1512 P.3       1 <0>         2.3538
     26 O6          1.1221   -8.5363    6.1057 O.2       1 <0>        -1.1053
     27 O7          2.2646  -10.4987    5.0062 O.3       1 <0>        -1.1159
     28 O8          3.6732   -8.4744    5.7512 O.3       1 <0>        -1.0986
     29 P3          4.3417   -8.5200    7.2152 P.3       1 <0>         2.2758
     30 O9          4.1205   -9.9161    7.8390 O.2       1 <0>        -1.1170
     31 O10         5.9208   -8.2308    7.0933 O.3       1 <0>        -0.9090
     32 O11         3.6891   -7.4454    8.1131 O.3       1 <0>        -1.1164
     33 O12        -1.5386   -5.1365   -0.8431 O.3       1 <0>        -0.5259
     34 O13        -0.9585   -2.7212   -1.8777 O.3       1 <0>        -0.5295
     35 N5          3.4393    2.2295   -0.0193 N.pl3     1 <0>        -0.8242
     36 H5         -0.9693    1.8187    0.0257 H         1 <0>         0.2007
     37 H6          3.4551   -2.9572   -0.0459 H         1 <0>         0.2268
     38 H7         -0.6457   -5.9155    1.2786 H         1 <0>         0.0687
     39 H8         -0.3118   -7.2567    0.1570 H         1 <0>         0.0671
     40 H9         -2.2039   -4.7735   -1.4436 H         1 <0>         0.3772
     41 H10        -1.2574   -2.9105   -2.7776 H         1 <0>         0.3783
     42 H11         3.3774    3.1975   -0.0138 H         1 <0>         0.4053
     43 H12         4.3085    1.7992   -0.0299 H         1 <0>         0.4173
     44 H13         6.3893   -8.2428    7.9391 H         1 <0>         0.3997
@<TRIPOS>BOND
     1    1    6 ar
     2    1    2 ar
     3    1   36 1
     4    2    3 ar
     5    3    4 ar
     6    3   35 1
     7    4    9 1
     8    4    5 ar
     9    5    6 ar
    10    5    7 1
    11    7    8 1
    12    7   10 1
    13    8    9 2
    14    8   37 1
    15   10   11 1
    16   10   18 1
    17   10   12 1
    18   12   13 1
    19   12   14 1
    20   12   34 1
    21   14   15 1
    22   14   16 1
    23   14   33 1
    24   16   17 1
    25   16   18 1
    26   16   19 1
    27   19   20 1
    28   19   38 1
    29   19   39 1
    30   20   21 1
    31   21   22 2
    32   21   23 1
    33   21   24 1
    34   24   25 1
    35   25   26 2
    36   25   27 1
    37   25   28 1
    38   28   29 1
    39   29   30 2
    40   29   31 1
    41   29   32 1
    42   31   44 1
    43   33   40 1
    44   34   41 1
    45   35   42 1
    46   35   43 1
@<TRIPOS>MOLECULE
ZINC03871614
   44    46     0     0     0
SMALL
USER_CHARGES

@<TRIPOS>ATOM
      1 C1         -0.0158    1.3119    0.0093 C.ar      1 <0>         0.3460
      2 N1          1.0888    2.0360    0.0026 N.ar      1 <0>        -0.5989
      3 C2          2.2875    1.4625   -0.0119 C.ar      1 <0>         0.5033
      4 C3          2.3582    0.0588   -0.0202 C.ar      1 <0>        -0.1032
      5 C4          1.1547   -0.6659   -0.0126 C.ar      1 <0>         0.3054
      6 N2          0.0021   -0.0041    0.0020 N.ar      1 <0>        -0.5410
      7 N3          1.5110   -1.9908   -0.0227 N.pl3     1 <0>        -0.4636
      8 C5          2.8729   -2.0476   -0.0358 C.2       1 <0>         0.2869
      9 N4          3.3680   -0.8441   -0.0343 N.2       1 <0>        -0.4696
     10 C6          0.5956   -3.1347   -0.0195 C.3       1 <0>         0.3090
     11 H1         -0.2963   -2.9126   -0.6053 H         1 <0>         0.1190
     12 C7          0.2130   -3.5234    1.4313 C.3       1 <0>         0.0319
     13 H2          1.0640   -3.4074    2.1024 H         1 <0>         0.0928
     14 C8         -0.1695   -5.0156    1.2770 C.3       1 <0>         0.0515
     15 H3         -1.2507   -5.1255    1.1924 H         1 <0>         0.0929
     16 C9          0.5206   -5.4491   -0.0308 C.3       1 <0>         0.0847
     17 H4         -0.2285   -5.7500   -0.7632 H         1 <0>         0.1034
     18 O1          1.2553   -4.3151   -0.5254 O.3       1 <0>        -0.3360
     19 C10         1.4746   -6.6130    0.2454 C.3       1 <0>         0.1466
     20 O2          2.0213   -7.0839   -0.9881 O.3       1 <0>        -0.7677
     21 P1          3.0671   -8.3049   -1.0743 P.3       1 <0>         2.2898
     22 O3          4.2793   -8.0101   -0.1628 O.2       1 <0>        -1.0992
     23 O4          2.3778   -9.6071   -0.6094 O.3       1 <0>        -1.1120
     24 O5          3.5680   -8.4761   -2.5948 O.3       1 <0>        -1.0983
     25 P2          4.7896   -9.2631   -3.2880 P.3       1 <0>         2.3539
     26 O6          6.0566   -9.1183   -2.4157 O.2       1 <0>        -1.1050
     27 O7          4.4270  -10.7586   -3.4252 O.3       1 <0>        -1.1161
     28 O8          5.0687   -8.6425   -4.7471 O.3       1 <0>        -1.0987
     29 P3          6.2880   -8.7490   -5.7932 P.3       1 <0>         2.2759
     30 O9          6.7385  -10.2221   -5.9108 O.2       1 <0>        -1.1170
     31 O10         5.8060   -8.2184   -7.2348 O.3       1 <0>        -0.9091
     32 O11         7.4699   -7.8871   -5.2960 O.3       1 <0>        -1.1163
     33 O12         0.3243   -5.7754    2.3819 O.3       1 <0>        -0.5326
     34 O13        -0.9020   -2.7551    1.8879 O.3       1 <0>        -0.5391
     35 N5          3.4393    2.2295   -0.0193 N.pl3     1 <0>        -0.8226
     36 H5         -0.9693    1.8187    0.0257 H         1 <0>         0.1990
     37 H6          3.4551   -2.9572   -0.0459 H         1 <0>         0.2341
     38 H7          2.2819   -6.2747    0.8950 H         1 <0>         0.0660
     39 H8          0.9300   -7.4212    0.7335 H         1 <0>         0.0753
     40 H9         -0.0351   -5.5042    3.2377 H         1 <0>         0.3745
     41 H10        -1.1790   -2.9622    2.7909 H         1 <0>         0.3796
     42 H11         3.3774    3.1975   -0.0138 H         1 <0>         0.4052
     43 H12         4.3085    1.7992   -0.0299 H         1 <0>         0.4194
     44 H13         6.4913   -8.2537   -7.9161 H         1 <0>         0.3997
@<TRIPOS>BOND
     1    1    6 ar
     2    1    2 ar
     3    1   36 1
     4    2    3 ar
     5    3    4 ar
     6    3   35 1
     7    4    9 1
     8    4    5 ar
     9    5    6 ar
    10    5    7 1
    11    7    8 1
    12    7   10 1
    13    8    9 2
    14    8   37 1
    15   10   11 1
    16   10   18 1
    17   10   12 1
    18   12   13 1
    19   12   14 1
    20   12   34 1
    21   14   15 1
    22   14   16 1
    23   14   33 1
    24   16   17 1
    25   16   18 1
    26   16   19 1
    27   19   20 1
    28   19   38 1
    29   19   39 1
    30   20   21 1
    31   21   22 2
    32   21   23 1
    33   21   24 1
    34   24   25 1
    35   25   26 2
    36   25   27 1
    37   25   28 1
    38   28   29 1
    39   29   30 2
    40   29   31 1
    41   29   32 1
    42   31   44 1
    43   33   40 1
    44   34   41 1
    45   35   42 1
    46   35   43 1
@<TRIPOS>MOLECULE
ZINC03871615
   44    46     0     0     0
SMALL
USER_CHARGES

@<TRIPOS>ATOM
      1 C1         -0.0158    1.3119    0.0093 C.ar      1 <0>         0.3452
      2 N1          1.0888    2.0360    0.0026 N.ar      1 <0>        -0.6014
      3 C2          2.2875    1.4625   -0.0119 C.ar      1 <0>         0.5028
      4 C3          2.3582    0.0588   -0.0202 C.ar      1 <0>        -0.1031
      5 C4          1.1547   -0.6659   -0.0126 C.ar      1 <0>         0.3118
      6 N2          0.0021   -0.0041    0.0020 N.ar      1 <0>        -0.5520
      7 N3          1.5110   -1.9908   -0.0227 N.pl3     1 <0>        -0.4598
      8 C5          2.8729   -2.0476   -0.0358 C.2       1 <0>         0.2829
      9 N4          3.3680   -0.8441   -0.0343 N.2       1 <0>        -0.4722
     10 C6          0.5956   -3.1347   -0.0195 C.3       1 <0>         0.3006
     11 H1         -0.2800   -2.9068    0.5884 H         1 <0>         0.1400
     12 C7          0.1616   -3.4624   -1.4613 C.3       1 <0>         0.0413
     13 H2         -0.9250   -3.4457   -1.5458 H         1 <0>         0.0932
     14 C8          0.7020   -4.8926   -1.7044 C.3       1 <0>         0.0480
     15 H3          1.1180   -4.9860   -2.7076 H         1 <0>         0.0923
     16 C9          1.8147   -5.0060   -0.6314 C.3       1 <0>         0.0733
     17 H4          2.7313   -4.5279   -0.9770 H         1 <0>         0.0994
     18 O1          1.2648   -4.2947    0.5027 O.3       1 <0>        -0.3199
     19 C10         2.0741   -6.4716   -0.2770 C.3       1 <0>         0.1467
     20 O2          3.1798   -6.5552    0.6244 O.3       1 <0>        -0.7677
     21 P1          3.7317   -7.9505    1.2082 P.3       1 <0>         2.2897
     22 O3          2.5758   -8.7172    1.8888 O.2       1 <0>        -1.0984
     23 O4          4.3043   -8.8016    0.0529 O.3       1 <0>        -1.1113
     24 O5          4.8912   -7.6599    2.2866 O.3       1 <0>        -1.0979
     25 P2          5.6132   -8.5476    3.4192 P.3       1 <0>         2.3541
     26 O6          4.5641   -9.4373    4.1227 O.2       1 <0>        -1.1052
     27 O7          6.6902   -9.4411    2.7643 O.3       1 <0>        -1.1158
     28 O8          6.3062   -7.5773    4.5010 O.3       1 <0>        -1.0985
     29 P3          6.8968   -7.7954    5.9828 P.3       1 <0>         2.2762
     30 O9          7.7590   -9.0771    6.0100 O.2       1 <0>        -1.1171
     31 O10         7.8041   -6.5295    6.3906 O.3       1 <0>        -0.9090
     32 O11         5.7306   -7.9377    6.9862 O.3       1 <0>        -1.1166
     33 O12        -0.3194   -5.8678   -1.4858 O.3       1 <0>        -0.5298
     34 O13         0.7478   -2.5401   -2.3821 O.3       1 <0>        -0.5405
     35 N5          3.4393    2.2295   -0.0193 N.pl3     1 <0>        -0.8240
     36 H5         -0.9693    1.8187    0.0257 H         1 <0>         0.1972
     37 H6          3.4551   -2.9572   -0.0459 H         1 <0>         0.2226
     38 H7          1.1872   -6.8935    0.1958 H         1 <0>         0.0755
     39 H8          2.3024   -7.0301   -1.1848 H         1 <0>         0.0693
     40 H9         -1.0800   -5.7799   -2.0765 H         1 <0>         0.3748
     41 H10         0.5081   -2.6999   -3.3052 H         1 <0>         0.3809
     42 H11         3.3774    3.1975   -0.0138 H         1 <0>         0.4043
     43 H12         4.3085    1.7992   -0.0299 H         1 <0>         0.4186
     44 H13         8.1935   -6.5927    7.2734 H         1 <0>         0.3997
@<TRIPOS>BOND
     1    1    6 ar
     2    1    2 ar
     3    1   36 1
     4    2    3 ar
     5    3    4 ar
     6    3   35 1
     7    4    9 1
     8    4    5 ar
     9    5    6 ar
    10    5    7 1
    11    7    8 1
    12    7   10 1
    13    8    9 2
    14    8   37 1
    15   10   11 1
    16   10   18 1
    17   10   12 1
    18   12   13 1
    19   12   14 1
    20   12   34 1
    21   14   15 1
    22   14   16 1
    23   14   33 1
    24   16   17 1
    25   16   18 1
    26   16   19 1
    27   19   20 1
    28   19   38 1
    29   19   39 1
    30   20   21 1
    31   21   22 2
    32   21   23 1
    33   21   24 1
    34   24   25 1
    35   25   26 2
    36   25   27 1
    37   25   28 1
    38   28   29 1
    39   29   30 2
    40   29   31 1
    41   29   32 1
    42   31   44 1
    43   33   40 1
    44   34   41 1
    45   35   42 1
    46   35   43 1
@<TRIPOS>MOLECULE
ZINC08214590
   72    74     0     0     0
SMALL
USER_CHARGES

@<TRIPOS>ATOM
      1 C1          0.9561    1.3662    0.7940 C.3       1 <0>        -0.1709
      2 C2          2.3614    1.9035    0.5159 C.3       1 <0>         0.0145
      3 H1          2.4394    2.1916   -0.5324 H         1 <0>         0.1748
      4 C3          3.3932    0.8167    0.8243 C.3       1 <0>         0.0660
      5 H2          3.3152    0.5286    1.8726 H         1 <0>         0.1119
      6 C4          3.1292   -0.4031   -0.0608 C.3       1 <0>         0.0986
      7 H3          3.2072   -0.1150   -1.1091 H         1 <0>         0.1047
      8 C5          1.7239   -0.9404    0.2173 C.3       1 <0>         0.0221
      9 H4          1.6459   -1.2285    1.2656 H         1 <0>         0.1095
     10 C6          0.6921    0.1464   -0.0911 C.3       1 <0>         0.0385
     11 H5          0.7701    0.4345   -1.1395 H         1 <0>         0.1789
     12 N1         -0.6572   -0.3695    0.1758 N.4       1 <0>        -0.6374
     13 O1          1.4773   -2.0797   -0.6094 O.3       1 <0>        -0.3760
     14 C7          1.9214   -3.3148   -0.0444 C.3       1 <0>         0.2066
     15 H6          2.8769   -3.1622    0.4575 H         1 <0>         0.1508
     16 C8          2.0889   -4.3538   -1.1562 C.3       1 <0>         0.0522
     17 H7          2.4663   -5.2841   -0.7316 H         1 <0>         0.1114
     18 C9          0.7303   -4.6067   -1.8169 C.3       1 <0>         0.0867
     19 H8          0.3756   -3.6883   -2.2846 H         1 <0>         0.0793
     20 C10        -0.2695   -5.0562   -0.7470 C.3       1 <0>         0.0887
     21 H9          0.0602   -6.0007   -0.3141 H         1 <0>         0.0978
     22 C11        -0.3459   -3.9901    0.3490 C.3       1 <0>         0.0754
     23 H10        -0.7144   -3.0568   -0.0768 H         1 <0>         0.0707
     24 O2          0.9560   -3.7812    0.9003 O.3       1 <0>        -0.3753
     25 C12        -1.2978   -4.4588    1.4513 C.3       1 <0>        -0.0040
     26 N2         -1.4642   -3.3877    2.4427 N.4       1 <0>        -0.6390
     27 O3         -1.5586   -5.2268   -1.3397 O.3       1 <0>        -0.5589
     28 O4          0.8634   -5.6274   -2.8082 O.3       1 <0>        -0.5481
     29 O5          3.0120   -3.8650   -2.1315 O.3       1 <0>        -0.5356
     30 O6          4.0929   -1.4182    0.2272 O.3       1 <0>        -0.5125
     31 O7          4.7058    1.3185    0.5646 O.3       1 <0>        -0.3508
     32 C13         5.4284    1.6917    1.7396 C.3       1 <0>         0.2074
     33 H11         4.7679    2.2353    2.4152 H         1 <0>         0.0863
     34 C14         6.6088    2.5855    1.3507 C.3       1 <0>         0.0441
     35 H12         7.1366    2.9036    2.2498 H         1 <0>         0.0999
     36 C15         7.5627    1.7950    0.4498 C.3       1 <0>         0.1164
     37 H13         7.0496    1.5193   -0.4715 H         1 <0>         0.1052
     38 C16         8.0103    0.5284    1.1858 C.3       1 <0>         0.0855
     39 H14         8.5664    0.8049    2.0816 H         1 <0>         0.0699
     40 C17         6.7757   -0.2860    1.5811 C.3       1 <0>         0.0645
     41 H15         6.2422   -0.5965    0.6828 H         1 <0>         0.1029
     42 O8          5.9160    0.5176    2.3922 O.3       1 <0>        -0.3564
     43 C18         7.2113   -1.5230    2.3691 C.3       1 <0>         0.0781
     44 O9          6.0730   -2.3464    2.6306 O.3       1 <0>        -0.5677
     45 O10         8.8446   -0.2528    0.3280 O.3       1 <0>        -0.5295
     46 N3          8.7352    2.6206    0.1312 N.3       1 <0>        -0.8229
     47 O11         6.1277    3.7331    0.6482 O.3       1 <0>        -0.5350
     48 N4          2.6149    3.0746    1.3657 N.4       1 <0>        -0.6353
     49 H16         0.8781    1.0781    1.8423 H         1 <0>         0.1207
     50 H17         0.2210    2.1404    0.5742 H         1 <0>         0.1401
     51 H18        -1.3376    0.3473   -0.0276 H         1 <0>         0.4550
     52 H19        -0.8313   -1.1739   -0.4079 H         1 <0>         0.4465
     53 H20        -2.2663   -4.7038    1.0151 H         1 <0>         0.1733
     54 H21        -0.8841   -5.3425    1.9371 H         1 <0>         0.1630
     55 H22        -0.5677   -3.1609    2.8465 H         1 <0>         0.4387
     56 H23        -1.8472   -2.5697    1.9931 H         1 <0>         0.4137
     57 H24        -1.5823   -5.8861   -2.0467 H         1 <0>         0.4218
     58 H25         1.4875   -5.4108   -3.5144 H         1 <0>         0.4096
     59 H26         3.8935   -3.6790   -1.7803 H         1 <0>         0.3926
     60 H27         4.0936   -2.1504   -0.4043 H         1 <0>         0.3886
     61 H28         7.9411   -2.0861    1.7873 H         1 <0>         0.0722
     62 H29         7.6601   -1.2132    3.3129 H         1 <0>         0.0613
     63 H30         6.2753   -3.1506    3.1280 H         1 <0>         0.3885
     64 H31         9.1652   -1.0716    0.7302 H         1 <0>         0.3838
     65 H32         8.4630    3.4652   -0.3491 H         1 <0>         0.3584
     66 H33         5.5138    4.2783    1.1591 H         1 <0>         0.3692
     67 H34         2.5427    2.8079    2.3361 H         1 <0>         0.4370
     68 H35         3.5417    3.4289    1.1823 H         1 <0>         0.4460
     69 H36        -2.0919   -3.6968    3.1697 H         1 <0>         0.4576
     70 H37         1.9345    3.7913    1.1623 H         1 <0>         0.4512
     71 H38        -0.7294   -0.6361    1.1463 H         1 <0>         0.4205
     72 H39         9.2650    2.8327    0.9633 H         1 <0>         0.3466
@<TRIPOS>BOND
     1    1   10 1
     2    1    2 1
     3    1   49 1
     4    1   50 1
     5    2    3 1
     6    2    4 1
     7    2   48 1
     8    4    5 1
     9    4    6 1
    10    4   31 1
    11    6    7 1
    12    6    8 1
    13    6   30 1
    14    8    9 1
    15    8   10 1
    16    8   13 1
    17   10   11 1
    18   10   12 1
    19   12   51 1
    20   12   52 1
    21   12   71 1
    22   13   14 1
    23   14   15 1
    24   14   24 1
    25   14   16 1
    26   16   17 1
    27   16   18 1
    28   16   29 1
    29   18   19 1
    30   18   20 1
    31   18   28 1
    32   20   21 1
    33   20   22 1
    34   20   27 1
    35   22   23 1
    36   22   24 1
    37   22   25 1
    38   25   26 1
    39   25   53 1
    40   25   54 1
    41   26   55 1
    42   26   56 1
    43   26   69 1
    44   27   57 1
    45   28   58 1
    46   29   59 1
    47   30   60 1
    48   31   32 1
    49   32   33 1
    50   32   42 1
    51   32   34 1
    52   34   35 1
    53   34   36 1
    54   34   47 1
    55   36   37 1
    56   36   38 1
    57   36   46 1
    58   38   39 1
    59   38   40 1
    60   38   45 1
    61   40   41 1
    62   40   42 1
    63   40   43 1
    64   43   44 1
    65   43   61 1
    66   43   62 1
    67   44   63 1
    68   45   64 1
    69   46   65 1
    70   46   72 1
    71   47   66 1
    72   48   67 1
    73   48   68 1
    74   48   70 1
@<TRIPOS>MOLECULE
ZINC13540266
   41    43     0     0     0
SMALL
USER_CHARGES

@<TRIPOS>ATOM
      1 C1          0.0065    1.3546    0.0365 C.2       1 <0>        -0.0128
      2 C2          1.2189    2.0656    0.0173 C.2       1 <0>        -0.2121
      3 C3          2.3965    1.4071   -0.0106 C.2       1 <0>         0.1323
      4 N1          2.4331    0.0448   -0.0207 N.pl3     1 <0>        -0.6248
      5 C4          1.2660   -0.6803   -0.0020 C.2       1 <0>         0.5180
      6 C5          0.0235   -0.0040    0.0273 C.2       1 <0>        -0.1600
      7 N2          1.3037   -1.9967   -0.0122 N.2       1 <0>        -1.0076
      8 S1          2.7606   -2.7831   -0.0477 S.o2      1 <0>         2.6203
      9 O1          3.3540   -2.4823   -1.3033 O.2       1 <0>        -0.9910
     10 O2          3.4050   -2.5001    1.1868 O.2       1 <0>        -0.9940
     11 C6          2.4195   -4.5117   -0.0531 C.ar      1 <0>        -0.6674
     12 C7          2.3049   -5.1959    1.1436 C.ar      1 <0>         0.0178
     13 C8          2.0377   -6.5503    1.1437 C.ar      1 <0>        -0.1882
     14 C9          1.8834   -7.2268   -0.0616 C.ar      1 <0>         0.2396
     15 C10         1.9990   -6.5352   -1.2626 C.ar      1 <0>        -0.1616
     16 C11         2.2615   -5.1798   -1.2540 C.ar      1 <0>         0.0156
     17 N3          1.6142   -8.5935   -0.0659 N.pl3     1 <0>        -0.4985
     18 N4          1.4714   -9.2192   -1.1849 N.2       1 <0>        -0.1877
     19 C12         1.3146  -10.5428   -1.1930 C.2       1 <0>         0.0844
     20 C13         1.1805  -11.2397    0.0314 C.2       1 <0>        -0.1107
     21 C14         1.0205  -12.5823    0.0562 C.2       1 <0>        -0.1564
     22 C15         0.9838  -13.3180   -1.1482 C.2       1 <0>         0.3860
     23 O3          0.8390  -14.5305   -1.1264 O.2       1 <0>        -0.4159
     24 C16         1.1209  -12.6109   -2.4265 C.2       1 <0>        -0.1903
     25 C17         1.2784  -11.2323   -2.4190 C.2       1 <0>        -0.0391
     26 C18         1.0869  -13.3502   -3.6945 C.2       1 <0>         0.5226
     27 O4          1.2021  -12.7510   -4.7555 O.co2     1 <0>        -0.6872
     28 O5          0.9432  -14.5656   -3.6905 O.co2     1 <0>        -0.6612
     29 H1         -0.9336    1.8854    0.0629 H         1 <0>         0.1491
     30 H2          1.2079    3.1455    0.0245 H         1 <0>         0.1544
     31 H3          3.3205    1.9660   -0.0255 H         1 <0>         0.1745
     32 H4         -0.9013   -0.5616    0.0418 H         1 <0>         0.1652
     33 H5          2.4249   -4.6699    2.0792 H         1 <0>         0.1437
     34 H6          1.9490   -7.0840    2.0785 H         1 <0>         0.1370
     35 H7          1.8798   -7.0569   -2.2007 H         1 <0>         0.1518
     36 H8          2.3474   -4.6412   -2.1861 H         1 <0>         0.1448
     37 H9          1.5342   -9.0746    0.7725 H         1 <0>         0.3891
     38 H10         1.2066  -10.6905    0.9610 H         1 <0>         0.1190
     39 H11         0.9208  -13.0942    1.0019 H         1 <0>         0.1398
     40 H12         1.3768  -10.6919   -3.3489 H         1 <0>         0.1482
     41 H13         3.2869   -0.4151   -0.0415 H         1 <0>         0.4132
@<TRIPOS>BOND
     1    1    6 2
     2    1    2 1
     3    1   29 1
     4    2    3 2
     5    2   30 1
     6    3    4 1
     7    3   31 1
     8    4    5 1
     9    4   41 1
    10    5    6 1
    11    5    7 2
    12    6   32 1
    13    7    8 1
    14    8    9 2
    15    8   10 2
    16    8   11 1
    17   11   16 ar
    18   11   12 ar
    19   12   13 ar
    20   12   33 1
    21   13   14 ar
    22   13   34 1
    23   14   15 ar
    24   14   17 1
    25   15   16 ar
    26   15   35 1
    27   16   36 1
    28   17   18 1
    29   17   37 1
    30   18   19 2
    31   19   25 1
    32   19   20 1
    33   20   21 2
    34   20   38 1
    35   21   22 1
    36   21   39 1
    37   22   23 2
    38   22   24 1
    39   24   25 2
    40   24   26 1
    41   25   40 1
    42   26   27 2
    43   26   28 1
@<TRIPOS>MOLECULE
ZINC13540266
   40    42     0     0     0
SMALL
USER_CHARGES

@<TRIPOS>ATOM
      1 C1          0.0063    1.3788    0.0367 C.ar      1 <0>        -0.0526
      2 C2          1.2181    2.0569    0.0173 C.ar      1 <0>        -0.2899
      3 C3          2.3954    1.3370   -0.0106 C.ar      1 <0>         0.1470
      4 N1          2.3817    0.0174   -0.0190 N.ar      1 <0>        -0.5978
      5 C4          1.2474   -0.6653   -0.0012 C.ar      1 <0>         0.4421
      6 C5          0.0235   -0.0041    0.0272 C.ar      1 <0>        -0.2193
      7 N2          1.2796   -2.0549   -0.0110 N.2       1 <0>        -1.0743
      8 S1          2.7322   -2.8493   -0.0448 S.o2      1 <0>         2.6314
      9 O1          3.3282   -2.5527   -1.3001 O.2       1 <0>        -1.0206
     10 O2          3.3772   -2.5690    1.1900 O.2       1 <0>        -1.0236
     11 C6          2.3816   -4.5761   -0.0492 C.ar      1 <0>        -0.6473
     12 C7          2.2623   -5.2588    1.1479 C.ar      1 <0>         0.0074
     13 C8          1.9877   -6.6117    1.1487 C.ar      1 <0>        -0.1845
     14 C9          1.8306   -7.2882   -0.0562 C.ar      1 <0>         0.2033
     15 C10         1.9509   -6.5980   -1.2576 C.ar      1 <0>        -0.1590
     16 C11         2.2208   -5.2442   -1.2497 C.ar      1 <0>         0.0064
     17 N3          1.5539   -8.6533   -0.0598 N.pl3     1 <0>        -0.4883
     18 N4          1.4085   -9.2791   -1.1784 N.2       1 <0>        -0.1601
     19 C12         1.2445  -10.6018   -1.1857 C.2       1 <0>         0.0463
     20 C13         1.1056  -11.2971    0.0391 C.2       1 <0>        -0.0955
     21 C14         0.9383  -12.6387    0.0647 C.2       1 <0>        -0.1758
     22 C15         0.8984  -13.3751   -1.1393 C.2       1 <0>         0.3917
     23 O3          0.7469  -14.5868   -1.1167 O.2       1 <0>        -0.4336
     24 C16         1.0403  -12.6697   -2.4180 C.2       1 <0>        -0.2102
     25 C17         1.2054  -11.2919   -2.4113 C.2       1 <0>        -0.0212
     26 C18         1.0032  -13.4096   -3.6854 C.2       1 <0>         0.5255
     27 O4          1.1225  -12.8119   -4.7468 O.co2     1 <0>        -0.6914
     28 O5          0.8529  -14.6243   -3.6807 O.co2     1 <0>        -0.6673
     29 H1         -0.9285    1.9191    0.0631 H         1 <0>         0.1111
     30 H2          1.2391    3.1367    0.0236 H         1 <0>         0.1081
     31 H3          3.3400    1.8603   -0.0261 H         1 <0>         0.1303
     32 H4         -0.9004   -0.5631    0.0417 H         1 <0>         0.1188
     33 H5          2.3845   -4.7327    2.0832 H         1 <0>         0.1416
     34 H6          1.8954   -7.1442    2.0838 H         1 <0>         0.1294
     35 H7          1.8295   -7.1197   -2.1955 H         1 <0>         0.1444
     36 H8          2.3104   -4.7066   -2.1822 H         1 <0>         0.1427
     37 H9          1.4706   -9.1335    0.7789 H         1 <0>         0.3872
     38 H10         1.1341  -10.7474    0.9683 H         1 <0>         0.1168
     39 H11         0.8350  -13.1495    1.0107 H         1 <0>         0.1351
     40 H12         1.3074  -10.7528   -3.3415 H         1 <0>         0.1457
@<TRIPOS>BOND
     1    1    6 ar
     2    1    2 ar
     3    1   29 1
     4    2    3 ar
     5    2   30 1
     6    3    4 ar
     7    3   31 1
     8    4    5 ar
     9    5    6 ar
    10    5    7 1
    11    6   32 1
    12    7    8 1
    13    8    9 2
    14    8   10 2
    15    8   11 1
    16   11   16 ar
    17   11   12 ar
    18   12   13 ar
    19   12   33 1
    20   13   14 ar
    21   13   34 1
    22   14   15 ar
    23   14   17 1
    24   15   16 ar
    25   15   35 1
    26   16   36 1
    27   17   18 1
    28   17   37 1
    29   18   19 2
    30   19   25 1
    31   19   20 1
    32   20   21 2
    33   20   38 1
    34   21   22 1
    35   21   39 1
    36   22   23 2
    37   22   24 1
    38   24   25 2
    39   24   26 1
    40   25   40 1
    41   26   27 2
    42   26   28 1
@<TRIPOS>MOLECULE
ZINC18167382
   28    28     0     0     0
SMALL
USER_CHARGES

@<TRIPOS>ATOM
      1 C1          0.7839   -0.7131   -1.1057 C.3       1 <0>        -0.1609
      2 C2          0.0021   -0.0041    0.0020 C.3       1 <0>        -0.0699
      3 C3         -0.0085    1.5024   -0.2653 C.3       1 <0>        -0.1527
      4 C4         -1.4353   -0.5277    0.0272 C.3       1 <0>        -0.1263
      5 C5         -2.0884   -0.0523    1.3106 C.2       1 <0>         0.4911
      6 O1         -1.5701   -0.3657    2.5088 O.3       1 <0>        -0.6343
      7 N1         -3.1726    0.6732    1.2131 N.2       1 <0>        -0.6746
      8 C6         -3.7159    1.0044    0.0371 C.2       1 <0>         0.6730
      9 O2         -4.7252    1.6833    0.0536 O.2       1 <0>        -0.5764
     10 N2         -3.2301    0.6439   -1.1573 N.am      1 <0>        -0.6999
     11 C7         -2.1130   -0.1094   -1.2647 C.2       1 <0>         0.5511
     12 O3         -1.6717   -0.4364   -2.3455 O.2       1 <0>        -0.5180
     13 C8         -1.3811   -2.0563    0.0632 C.3       1 <0>        -0.0700
     14 C9         -2.7832   -2.6082    0.0887 C.2       1 <0>        -0.1505
     15 C10        -3.1623   -3.4756   -0.8168 C.2       1 <0>        -0.1979
     16 H1          1.8079   -0.3401   -1.1236 H         1 <0>         0.0496
     17 H2          0.7914   -1.7863   -0.9152 H         1 <0>         0.0569
     18 H3          0.3093   -0.5181   -2.0673 H         1 <0>         0.0790
     19 H4          0.4767   -0.1991    0.9637 H         1 <0>         0.0927
     20 H5         -0.3916    1.6907   -1.2683 H         1 <0>         0.0494
     21 H6         -0.6475    1.9967    0.4664 H         1 <0>         0.0584
     22 H7          1.0059    1.8929   -0.1846 H         1 <0>         0.0598
     23 H8         -3.6896    0.9292   -1.9626 H         1 <0>         0.3968
     24 H9         -0.8626   -2.4225   -0.8229 H         1 <0>         0.0809
     25 H10        -0.8470   -2.3800    0.9565 H         1 <0>         0.0937
     26 H11        -3.4755   -2.2886    0.8536 H         1 <0>         0.1101
     27 H12        -4.1671   -3.8711   -0.7986 H         1 <0>         0.0942
     28 H13        -2.4700   -3.7952   -1.5817 H         1 <0>         0.0948
@<TRIPOS>BOND
     1    1    2 1
     2    1   16 1
     3    1   17 1
     4    1   18 1
     5    2    3 1
     6    2    4 1
     7    2   19 1
     8    3   20 1
     9    3   21 1
    10    3   22 1
    11    4   11 1
    12    4    5 1
    13    4   13 1
    14    5    6 1
    15    5    7 2
    16    7    8 1
    17    8    9 2
    18    8   10 am
    19   10   11 am
    20   10   23 1
    21   11   12 2
    22   13   14 1
    23   13   24 1
    24   13   25 1
    25   14   15 2
    26   14   26 1
    27   15   27 1
    28   15   28 1
@<TRIPOS>MOLECULE
ZINC18167382
   28    28     0     0     0
SMALL
USER_CHARGES

@<TRIPOS>ATOM
      1 C1          0.7841   -0.7139   -1.1050 C.3       1 <0>        -0.1581
      2 C2          0.0021   -0.0041    0.0020 C.3       1 <0>        -0.0680
      3 C3         -0.0086    1.5022   -0.2664 C.3       1 <0>        -0.1521
      4 C4         -1.4353   -0.5278    0.0273 C.3       1 <0>        -0.1561
      5 C5         -2.0893   -0.0513    1.3112 C.2       1 <0>         0.5468
      6 O1         -1.6280   -0.3302    2.3971 O.2       1 <0>        -0.5267
      7 N1         -3.2083    0.6969    1.1918 N.am      1 <0>        -0.6848
      8 C6         -3.7258    1.0093   -0.0259 C.2       1 <0>         0.6408
      9 O2         -4.8424    1.7591   -0.0542 O.3       1 <0>        -0.6623
     10 N2         -3.2175    0.6346   -1.1746 N.2       1 <0>        -0.6787
     11 C7         -2.1130   -0.1100   -1.2636 C.2       1 <0>         0.5391
     12 O3         -1.6656   -0.4422   -2.3433 O.2       1 <0>        -0.5333
     13 C8         -1.3813   -2.0564    0.0639 C.3       1 <0>        -0.0690
     14 C9         -2.7834   -2.6081    0.0896 C.2       1 <0>        -0.1599
     15 C10        -3.1626   -3.4758   -0.8157 C.2       1 <0>        -0.1798
     16 H1          1.8081   -0.3407   -1.1231 H         1 <0>         0.0480
     17 H2          0.7917   -1.7869   -0.9138 H         1 <0>         0.0547
     18 H3          0.3096   -0.5196   -2.0669 H         1 <0>         0.0903
     19 H4          0.4766   -0.1983    0.9639 H         1 <0>         0.0762
     20 H5         -0.3915    1.6897   -1.2696 H         1 <0>         0.0649
     21 H6         -0.6478    1.9970    0.4648 H         1 <0>         0.0469
     22 H7          1.0057    1.8928   -0.1857 H         1 <0>         0.0581
     23 H8         -3.6521    1.0179    1.9924 H         1 <0>         0.3990
     24 H9         -0.8628   -2.4230   -0.8220 H         1 <0>         0.0919
     25 H10        -0.8471   -2.3799    0.9573 H         1 <0>         0.0795
     26 H11        -3.4757   -2.2882    0.8543 H         1 <0>         0.0998
     27 H12        -2.4703   -3.7957   -1.5804 H         1 <0>         0.0980
     28 H13        -4.1674   -3.8712   -0.7973 H         1 <0>         0.0948
@<TRIPOS>BOND
     1    1    2 1
     2    1   16 1
     3    1   17 1
     4    1   18 1
     5    2    3 1
     6    2    4 1
     7    2   19 1
     8    3   20 1
     9    3   21 1
    10    3   22 1
    11    4   11 1
    12    4    5 1
    13    4   13 1
    14    5    6 2
    15    5    7 am
    16    7    8 1
    17    7   23 1
    18    8    9 1
    19    8   10 2
    20   10   11 1
    21   11   12 2
    22   13   14 1
    23   13   24 1
    24   13   25 1
    25   14   15 2
    26   14   26 1
    27   15   27 1
    28   15   28 1
@<TRIPOS>MOLECULE
ZINC22002214
   45    47     0     0     0
SMALL
USER_CHARGES

@<TRIPOS>ATOM
      1 C1         -0.2518    1.1544   -0.5139 C.3       1 <0>        -0.1487
      2 C2         -0.1865   -0.3674   -0.3704 C.3       1 <0>        -0.0637
      3 C3         -1.5839   -0.9233   -0.2731 C.2       1 <0>        -0.1414
      4 C4         -2.3326   -1.4135   -1.2616 C.2       1 <0>         0.0362
      5 N1         -3.5280   -1.8820   -0.8179 N.2       1 <0>        -0.4360
      6 C5         -3.6509   -1.8202    0.4463 C.2       1 <0>         0.1227
      7 C6         -2.4344   -1.0515    0.9616 C.3       1 <0>        -0.1532
      8 H1         -2.7121   -0.0761    1.3611 H         1 <0>         0.1633
      9 C7         -1.8320   -1.9542    2.0141 C.2       1 <0>         0.4013
     10 O1         -0.6547   -2.2229    2.0248 O.2       1 <0>        -0.4141
     11 C8         -2.7876   -2.5034    3.0563 C.3       1 <0>        -0.1662
     12 H2         -3.1912   -1.6777    3.6423 H         1 <0>         0.1314
     13 C9         -3.9387   -3.2611    2.3985 C.3       1 <0>        -0.1214
     14 C10        -4.6885   -2.3601    1.3958 C.3       1 <0>        -0.0493
     15 C11        -2.0274   -3.4532    3.9840 C.3       1 <0>         0.0002
     16 N2         -2.9136   -3.8890    5.0715 N.4       1 <0>        -0.3862
     17 C12        -3.2537   -2.7370    5.9179 C.3       1 <0>        -0.0521
     18 C13        -4.1772   -3.1937    7.0500 C.3       1 <0>         0.0369
     19 O2         -3.5289   -4.2241    7.8009 O.3       1 <0>        -0.3551
     20 C14        -3.1560   -5.3591    7.0145 C.3       1 <0>         0.0362
     21 C15        -2.2306   -4.9065    5.8823 C.3       1 <0>        -0.0442
     22 C16        -1.9024   -1.4437   -2.7055 C.3       1 <0>        -0.0957
     23 H3          0.7589    1.5565   -0.5843 H         1 <0>         0.0668
     24 H4         -0.8084    1.4108   -1.4154 H         1 <0>         0.0588
     25 H5         -0.7526    1.5803    0.3556 H         1 <0>         0.0525
     26 H6          0.3142   -0.7932   -1.2399 H         1 <0>         0.0819
     27 H7          0.3700   -0.6237    0.5311 H         1 <0>         0.0825
     28 H8         -3.5419   -4.1315    1.8758 H         1 <0>         0.0914
     29 H9         -4.6346   -3.5938    3.1686 H         1 <0>         0.0855
     30 H10        -5.1814   -1.5388    1.9160 H         1 <0>         0.1066
     31 H11        -5.4231   -2.9511    0.8489 H         1 <0>         0.1111
     32 H12        -1.6918   -4.3224    3.4184 H         1 <0>         0.1411
     33 H13        -1.1638   -2.9373    4.4038 H         1 <0>         0.1426
     34 H14        -2.3420   -2.3146    6.3404 H         1 <0>         0.1423
     35 H15        -3.7605   -1.9817    5.3175 H         1 <0>         0.1425
     36 H16        -4.3962   -2.3496    7.7040 H         1 <0>         0.1434
     37 H17        -5.1058   -3.5793    6.6292 H         1 <0>         0.0824
     38 H18        -2.6359   -6.0822    7.6427 H         1 <0>         0.1440
     39 H19        -4.0496   -5.8189    6.5923 H         1 <0>         0.0823
     40 H20        -1.9780   -5.7616    5.2553 H         1 <0>         0.1446
     41 H21        -1.3193   -4.4832    6.3048 H         1 <0>         0.1415
     42 H22        -1.3810   -2.3788   -2.9098 H         1 <0>         0.0779
     43 H23        -2.7800   -1.3692   -3.3478 H         1 <0>         0.0783
     44 H24        -1.2351   -0.6048   -2.9034 H         1 <0>         0.0779
     45 H25        -3.7576   -4.2807    4.6813 H         1 <0>         0.4211
@<TRIPOS>BOND
     1    1    2 1
     2    1   23 1
     3    1   24 1
     4    1   25 1
     5    2    3 1
     6    2   26 1
     7    2   27 1
     8    3    7 1
     9    3    4 2
    10    4    5 1
    11    4   22 1
    12    5    6 2
    13    6   14 1
    14    6    7 1
    15    7    8 1
    16    7    9 1
    17    9   10 2
    18    9   11 1
    19   11   12 1
    20   11   13 1
    21   11   15 1
    22   13   14 1
    23   13   28 1
    24   13   29 1
    25   14   30 1
    26   14   31 1
    27   15   16 1
    28   15   32 1
    29   15   33 1
    30   16   21 1
    31   16   17 1
    32   16   45 1
    33   17   18 1
    34   17   34 1
    35   17   35 1
    36   18   19 1
    37   18   36 1
    38   18   37 1
    39   19   20 1
    40   20   21 1
    41   20   38 1
    42   20   39 1
    43   21   40 1
    44   21   41 1
    45   22   42 1
    46   22   43 1
    47   22   44 1
@<TRIPOS>MOLECULE
ZINC22002218
   45    47     0     0     0
SMALL
USER_CHARGES

@<TRIPOS>ATOM
      1 C1         -0.0187    1.5258    0.0104 C.3       1 <0>        -0.1478
      2 C2          0.0021   -0.0041    0.0020 C.3       1 <0>        -0.0632
      3 C3         -1.4117   -0.5257    0.0127 C.2       1 <0>        -0.1526
      4 C4         -2.1490   -0.8929   -1.0359 C.2       1 <0>         0.0456
      5 N1         -3.3670   -1.3680   -0.6674 N.2       1 <0>        -0.4354
      6 C5         -3.5192   -1.4290    0.5936 C.2       1 <0>         0.1287
      7 C6         -2.2954   -0.7514    1.2097 C.3       1 <0>        -0.1611
      8 H1         -2.5564    0.1871    1.6988 H         1 <0>         0.1534
      9 C7         -1.7435   -1.7717    2.1791 C.2       1 <0>         0.3664
     10 O1         -0.5745   -2.0745    2.1883 O.2       1 <0>        -0.4012
     11 C8         -2.7388   -2.3938    3.1400 C.3       1 <0>        -0.1602
     12 H2         -2.2318   -3.1479    3.7419 H         1 <0>         0.1265
     13 C9         -3.8935   -3.0482    2.3847 C.3       1 <0>        -0.1051
     14 C10        -4.5938   -2.0302    1.4615 C.3       1 <0>        -0.0604
     15 C11        -3.2948   -1.3062    4.0613 C.3       1 <0>        -0.0075
     16 N2         -2.2135   -0.7785    4.9041 N.4       1 <0>        -0.3921
     17 C12        -1.7306   -1.8372    5.8014 C.3       1 <0>        -0.0509
     18 C13        -0.6039   -1.2850    6.6782 C.3       1 <0>         0.0362
     19 O2         -1.0870   -0.1554    7.4107 O.3       1 <0>        -0.3537
     20 C14        -1.5909    0.8943    6.5800 C.3       1 <0>         0.0348
     21 C15        -2.7194    0.3462    5.7030 C.3       1 <0>        -0.0450
     22 C16        -1.6845   -0.7916   -2.4659 C.3       1 <0>        -0.0981
     23 H3          1.0039    1.9031    0.0027 H         1 <0>         0.0673
     24 H4         -0.5459    1.8868   -0.8726 H         1 <0>         0.0604
     25 H5         -0.5289    1.8773    0.9072 H         1 <0>         0.0483
     26 H6          0.5123   -0.3556   -0.8948 H         1 <0>         0.0839
     27 H7          0.5293   -0.3651    0.8851 H         1 <0>         0.0803
     28 H8         -3.5076   -3.8734    1.7861 H         1 <0>         0.0964
     29 H9         -4.6167   -3.4355    3.1024 H         1 <0>         0.1082
     30 H10        -5.0771   -1.2508    2.0506 H         1 <0>         0.1010
     31 H11        -5.3305   -2.5420    0.8422 H         1 <0>         0.1140
     32 H12        -3.7132   -0.4993    3.4597 H         1 <0>         0.1408
     33 H13        -4.0748   -1.7298    4.6940 H         1 <0>         0.1539
     34 H14        -2.5495   -2.1791    6.4342 H         1 <0>         0.1461
     35 H15        -1.3549   -2.6720    5.2097 H         1 <0>         0.1433
     36 H16        -0.2733   -2.0558    7.3743 H         1 <0>         0.1452
     37 H17         0.2316   -0.9800    6.0481 H         1 <0>         0.0816
     38 H18        -1.9746    1.7007    7.2050 H         1 <0>         0.1452
     39 H19        -0.7892    1.2739    5.9465 H         1 <0>         0.0809
     40 H20        -3.0778    1.1322    5.0383 H         1 <0>         0.1439
     41 H21        -3.5380    0.0035    6.3359 H         1 <0>         0.1452
     42 H22        -1.1837   -1.7166   -2.7517 H         1 <0>         0.0801
     43 H23        -2.5438   -0.6278   -3.1163 H         1 <0>         0.0798
     44 H24        -0.9902    0.0429   -2.5642 H         1 <0>         0.0784
     45 H25        -1.4551   -0.4613    4.3190 H         1 <0>         0.4182
@<TRIPOS>BOND
     1    1    2 1
     2    1   23 1
     3    1   24 1
     4    1   25 1
     5    2    3 1
     6    2   26 1
     7    2   27 1
     8    3    7 1
     9    3    4 2
    10    4    5 1
    11    4   22 1
    12    5    6 2
    13    6   14 1
    14    6    7 1
    15    7    8 1
    16    7    9 1
    17    9   10 2
    18    9   11 1
    19   11   12 1
    20   11   13 1
    21   11   15 1
    22   13   14 1
    23   13   28 1
    24   13   29 1
    25   14   30 1
    26   14   31 1
    27   15   16 1
    28   15   32 1
    29   15   33 1
    30   16   21 1
    31   16   17 1
    32   16   45 1
    33   17   18 1
    34   17   34 1
    35   17   35 1
    36   18   19 1
    37   18   36 1
    38   18   37 1
    39   19   20 1
    40   20   21 1
    41   20   38 1
    42   20   39 1
    43   21   40 1
    44   21   41 1
    45   22   42 1
    46   22   43 1
    47   22   44 1
@<TRIPOS>MOLECULE
ZINC18210358
   55    58     0     0     0
SMALL
USER_CHARGES

@<TRIPOS>ATOM
      1 C1          0.6328    2.2986    0.6647 C.3       1 <0>        -0.1778
      2 C2          0.4786    0.7859    0.4952 C.3       1 <0>         0.1784
      3 C3          1.2419    0.3398   -0.7238 C.ar      1 <0>        -0.0835
      4 C4          1.5137    1.2262   -1.7422 C.ar      1 <0>        -0.1380
      5 C5          2.2037    0.8035   -2.8675 C.ar      1 <0>        -0.1136
      6 C6          2.6249   -0.5071   -2.9812 C.ar      1 <0>        -0.1586
      7 C7          2.3643   -1.4125   -1.9631 C.ar      1 <0>         0.1348
      8 C8          1.6731   -0.9861   -0.8209 C.ar      1 <0>        -0.0831
      9 C9          1.4136   -1.9130    0.2905 C.2       1 <0>         0.3358
     10 O1          1.5196   -3.2466    0.1032 O.3       1 <0>        -0.5932
     11 C10         1.0607   -1.4096    1.5287 C.2       1 <0>        -0.4835
     12 C11         0.7494   -2.2990    2.5517 C.2       1 <0>         0.3814
     13 C12         0.3765   -1.8706    3.9397 C.3       1 <0>         0.0966
     14 C13         0.6052   -0.3913    4.1442 C.3       1 <0>        -0.0758
     15 H1          1.6818   -0.2367    4.2150 H         1 <0>         0.0941
     16 C14         0.1133    0.4019    2.9344 C.3       1 <0>        -0.0953
     17 C15         1.0145    0.0800    1.7386 C.3       1 <0>         0.0303
     18 H2          2.0193    0.4439    1.9534 H         1 <0>         0.0507
     19 C16        -0.0126    0.1502    5.4184 C.3       1 <0>         0.0040
     20 H3          0.0506    1.2384    5.4120 H         1 <0>         0.1385
     21 C17        -1.4532   -0.2590    5.5385 C.2       1 <0>         0.3759
     22 O2         -2.2507    0.4724    6.0885 O.2       1 <0>        -0.5260
     23 C18        -1.8903   -1.5405    4.9902 C.2       1 <0>        -0.4950
     24 C19        -1.0278   -2.2948    4.2424 C.2       1 <0>         0.3211
     25 O3         -1.4698   -3.4573    3.7401 O.3       1 <0>        -0.5257
     26 C20        -3.2544   -2.0255    5.2540 C.2       1 <0>         0.5850
     27 O4         -3.5791   -3.1456    4.9082 O.2       1 <0>        -0.5532
     28 N1         -4.1439   -1.2287    5.8787 N.am      1 <0>        -0.8760
     29 N2          0.7323   -0.3686    6.5733 N.4       1 <0>        -0.3710
     30 C21         2.1446    0.0192    6.4594 C.3       1 <0>        -0.0468
     31 C22         0.1695    0.1896    7.8100 C.3       1 <0>        -0.0461
     32 O5          1.2407   -2.5544    4.8495 O.3       1 <0>        -0.5814
     33 O6          0.7816   -3.4897    2.3073 O.2       1 <0>        -0.4732
     34 O7          2.7754   -2.7008   -2.0722 O.3       1 <0>        -0.4706
     35 O8         -0.9042    0.4665    0.3281 O.3       1 <0>        -0.5322
     36 H4          1.6866    2.5438    0.7972 H         1 <0>         0.0643
     37 H5          0.2508    2.8044   -0.2220 H         1 <0>         0.0572
     38 H6          0.0709    2.6253    1.5397 H         1 <0>         0.0656
     39 H7          1.1881    2.2530   -1.6640 H         1 <0>         0.1228
     40 H8          2.4140    1.5046   -3.6616 H         1 <0>         0.1190
     41 H9          3.1577   -0.8275   -3.8643 H         1 <0>         0.1223
     42 H10        -0.9142    0.1193    2.7050 H         1 <0>         0.0885
     43 H11         0.1618    1.4688    3.1522 H         1 <0>         0.0620
     44 H12        -3.9095   -0.3111    6.0884 H         1 <0>         0.4005
     45 H13        -5.0184   -1.5728    6.1188 H         1 <0>         0.3772
     46 H14         2.2139    1.0940    6.2915 H         1 <0>         0.1127
     47 H15         2.6678   -0.2392    7.3801 H         1 <0>         0.1150
     48 H16         2.6002   -0.5094    5.6220 H         1 <0>         0.1320
     49 H17         0.7222   -0.1954    8.6670 H         1 <0>         0.1141
     50 H18         0.2470    1.2766    7.7862 H         1 <0>         0.1157
     51 H19        -0.8785   -0.0981    7.8946 H         1 <0>         0.1241
     52 H20         1.1770   -3.5182    4.8034 H         1 <0>         0.4003
     53 H21         3.6611   -2.8623   -1.7192 H         1 <0>         0.3827
     54 H22        -1.3141    0.8841   -0.4416 H         1 <0>         0.3629
     55 H23         0.6606   -1.3748    6.5953 H         1 <0>         0.4341
@<TRIPOS>BOND
     1    1    2 1
     2    1   36 1
     3    1   37 1
     4    1   38 1
     5    2   17 1
     6    2    3 1
     7    2   35 1
     8    3    8 ar
     9    3    4 ar
    10    4    5 ar
    11    4   39 1
    12    5    6 ar
    13    5   40 1
    14    6    7 ar
    15    6   41 1
    16    7    8 ar
    17    7   34 1
    18    8    9 1
    19    9   10 1
    20    9   11 2
    21   11   17 1
    22   11   12 1
    23   12   13 1
    24   12   33 2
    25   13   24 1
    26   13   14 1
    27   13   32 1
    28   14   15 1
    29   14   16 1
    30   14   19 1
    31   16   17 1
    32   16   42 1
    33   16   43 1
    34   17   18 1
    35   19   20 1
    36   19   21 1
    37   19   29 1
    38   21   22 2
    39   21   23 1
    40   23   24 2
    41   23   26 1
    42   24   25 1
    43   26   27 2
    44   26   28 am
    45   28   44 1
    46   28   45 1
    47   29   30 1
    48   29   31 1
    49   29   55 1
    50   30   46 1
    51   30   47 1
    52   30   48 1
    53   31   49 1
    54   31   50 1
    55   31   51 1
    56   32   52 1
    57   34   53 1
    58   35   54 1
@<TRIPOS>MOLECULE
ZINC34676245
   13    13     0     0     0
SMALL
USER_CHARGES

@<TRIPOS>ATOM
      1 C1         -0.0175    1.4362    0.0099 C.3       1 <0>         0.0346
      2 C2          1.4869    1.7926   -0.0025 C.3       1 <0>         0.0285
      3 H1          1.6677    2.6822   -0.6059 H         1 <0>         0.0906
      4 C3          2.1182    0.5711   -0.6438 C.2       1 <0>         0.5252
      5 O1          3.2416    0.4980   -1.0949 O.2       1 <0>        -0.5046
      6 N1          1.2029   -0.4179   -0.6207 N.am      1 <0>        -0.5812
      7 O2          0.0021   -0.0041    0.0020 O.3       1 <0>        -0.1336
      8 N2          1.9874    1.9838    1.3653 N.3       1 <0>        -0.8267
      9 H2         -0.4966    1.8117    0.9141 H         1 <0>         0.1215
     10 H3         -0.5138    1.8213   -0.8808 H         1 <0>         0.0895
     11 H4          2.9692    2.2166    1.3618 H         1 <0>         0.3578
     12 H5          1.4509    2.6863    1.8518 H         1 <0>         0.3564
     13 H6          1.3495   -1.3044   -0.9862 H         1 <0>         0.4419
@<TRIPOS>BOND
     1    1    7 1
     2    1    2 1
     3    1    9 1
     4    1   10 1
     5    2    3 1
     6    2    4 1
     7    2    8 1
     8    4    5 2
     9    4    6 am
    10    6    7 1
    11    6   13 1
    12    8   11 1
    13    8   12 1
@<TRIPOS>MOLECULE
ZINC03876069
   36    36     0     0     0
SMALL
USER_CHARGES
(5S)-5-allyl-1-methyl-5-[(1R)-1-methylpent-2-ynyl]hexahydropyrimidine-2,4,6-trione
@<TRIPOS>ATOM
      1 C1         -0.0127    1.0858    0.0080 C.3       1 <0>        -0.1447
      2 C2         -0.7288    1.5792    1.2668 C.3       1 <0>        -0.0002
      3 C3         -2.1098    1.0697    1.2773 C.1       1 <0>        -0.1892
      4 C4         -3.2112    0.6634    1.2856 C.1       1 <0>        -0.1588
      5 C5         -4.5922    0.1539    1.2960 C.3       1 <0>         0.0479
      6 H1         -5.0738    0.5276    2.2116 H         1 <0>         0.1063
      7 C6         -5.3322    0.6607    0.0565 C.3       1 <0>        -0.1461
      8 C7         -4.5714   -1.3760    1.2876 C.3       1 <0>        -0.1435
      9 C8         -6.0065   -1.8676    1.2987 C.2       1 <0>         0.5265
     10 O1         -6.7695   -1.5602    2.1893 O.3       1 <0>        -0.5525
     11 N1         -6.4024   -2.6603    0.2803 N.2       1 <0>        -0.7132
     12 C9         -5.5726   -3.0093   -0.7095 C.2       1 <0>         0.6662
     13 O2         -6.0120   -3.7265   -1.5862 O.2       1 <0>        -0.5910
     14 N2         -4.2943   -2.6258   -0.8047 N.am      1 <0>        -0.5908
     15 C10        -3.7162   -1.8300    0.1199 C.2       1 <0>         0.5463
     16 O3         -2.5566   -1.4905    0.0204 O.2       1 <0>        -0.5114
     17 C11        -3.4984   -3.0832   -1.9464 C.3       1 <0>         0.0777
     18 C12        -3.8970   -1.8468    2.5777 C.3       1 <0>        -0.0679
     19 C13        -3.8588   -3.3530    2.6038 C.2       1 <0>        -0.1511
     20 C14        -2.7182   -3.9766    2.7665 C.2       1 <0>        -0.1987
     21 H2          1.0193    1.4666    0.0002 H         1 <0>         0.0549
     22 H3         -0.5448    1.4502   -0.8831 H         1 <0>         0.0537
     23 H4          0.0022   -0.0141    0.0020 H         1 <0>         0.0643
     24 H5         -0.1967    1.2148    2.1579 H         1 <0>         0.0778
     25 H6         -0.7437    2.6791    1.2729 H         1 <0>         0.0753
     26 H7         -6.3642    0.2799    0.0643 H         1 <0>         0.0738
     27 H8         -4.8173    0.3059   -0.8485 H         1 <0>         0.0523
     28 H9         -5.3471    1.7606    0.0626 H         1 <0>         0.0624
     29 H10        -2.4787   -2.6782   -1.8683 H         1 <0>         0.0787
     30 H11        -3.9617   -2.7324   -2.8804 H         1 <0>         0.0622
     31 H12        -3.4572   -4.1824   -1.9478 H         1 <0>         0.0624
     32 H13        -2.8707   -1.4532    2.6196 H         1 <0>         0.0765
     33 H14        -4.4663   -1.4794    3.4442 H         1 <0>         0.0893
     34 H15        -4.7886   -3.9289    2.4862 H         1 <0>         0.1130
     35 H16        -2.6903   -5.0761    2.7856 H         1 <0>         0.0962
     36 H17        -1.7884   -3.4007    2.8841 H         1 <0>         0.0954
@<TRIPOS>BOND
     1    1    2 1
     2    1   21 1
     3    1   22 1
     4    1   23 1
     5    2    3 1
     6    2   24 1
     7    2   25 1
     8    3    4 3
     9    4    5 1
    10    5    6 1
    11    5    7 1
    12    5    8 1
    13    7   26 1
    14    7   27 1
    15    7   28 1
    16    8   15 1
    17    8    9 1
    18    8   18 1
    19    9   10 1
    20    9   11 2
    21   11   12 1
    22   12   13 2
    23   12   14 am
    24   14   15 am
    25   14   17 1
    26   15   16 2
    27   17   29 1
    28   17   30 1
    29   17   31 1
    30   18   19 1
    31   18   32 1
    32   18   33 1
    33   19   20 2
    34   19   34 1
    35   20   35 1
    36   20   36 1
@<TRIPOS>MOLECULE
ZINC01530929
   36    36     0     0     0
SMALL
USER_CHARGES
(5S)-5-allyl-1-methyl-5-[(1S)-1-methylpent-2-ynyl]hexahydropyrimidine-2,4,6-trione
@<TRIPOS>ATOM
      1 C1         -0.0127    1.0858    0.0080 C.3       1 <0>        -0.1465
      2 C2         -0.7288    1.5792    1.2668 C.3       1 <0>        -0.0017
      3 C3         -2.1098    1.0697    1.2773 C.1       1 <0>        -0.1808
      4 C4         -3.2112    0.6634    1.2856 C.1       1 <0>        -0.1556
      5 C5         -4.5922    0.1539    1.2960 C.3       1 <0>         0.0512
      6 H1         -5.0911    0.5374    0.3938 H         1 <0>         0.0947
      7 C6         -5.3083    0.6473    2.5548 C.3       1 <0>        -0.1476
      8 C7         -4.5714   -1.3760    1.2876 C.3       1 <0>        -0.1466
      9 C8         -3.6941   -1.8425    2.4339 C.2       1 <0>         0.5248
     10 O1         -2.5326   -1.5046    2.5144 O.3       1 <0>        -0.5357
     11 N1         -4.2546   -2.6481    3.3608 N.2       1 <0>        -0.7154
     12 C9         -5.5347   -3.0300    3.2863 C.2       1 <0>         0.6645
     13 O2         -5.9576   -3.7560    4.1639 O.2       1 <0>        -0.5922
     14 N2         -6.3829   -2.6713    2.3159 N.am      1 <0>        -0.5883
     15 C10        -6.0065   -1.8676    1.2987 C.2       1 <0>         0.5502
     16 O3         -6.7865   -1.5501    0.4266 O.2       1 <0>        -0.5288
     17 C11        -7.7616   -3.1650    2.3588 C.3       1 <0>         0.0756
     18 C12        -3.9218   -1.8328   -0.0201 C.3       1 <0>        -0.0669
     19 C13        -3.8842   -3.3387   -0.0631 C.2       1 <0>        -0.1509
     20 C14        -4.4141   -3.9785   -1.0761 C.2       1 <0>        -0.1998
     21 H2          1.0193    1.4666    0.0002 H         1 <0>         0.0577
     22 H3         -0.5448    1.4502   -0.8831 H         1 <0>         0.0532
     23 H4          0.0022   -0.0141    0.0020 H         1 <0>         0.0607
     24 H5         -0.1967    1.2148    2.1579 H         1 <0>         0.0834
     25 H6         -0.7437    2.6791    1.2729 H         1 <0>         0.0745
     26 H7         -6.3403    0.2666    2.5626 H         1 <0>         0.0581
     27 H8         -5.3232    1.7472    2.5609 H         1 <0>         0.0632
     28 H9         -4.7763    0.2829    3.4459 H         1 <0>         0.0670
     29 H10        -8.3172   -2.7767    1.4925 H         1 <0>         0.0797
     30 H11        -8.2443   -2.8243    3.2867 H         1 <0>         0.0640
     31 H12        -7.7584   -4.2646    2.3295 H         1 <0>         0.0637
     32 H13        -4.5076   -1.4562   -0.8716 H         1 <0>         0.0735
     33 H14        -2.8965   -1.4386   -0.0775 H         1 <0>         0.0916
     34 H15        -3.4118   -3.9007    0.7561 H         1 <0>         0.1127
     35 H16        -4.3867   -5.0777   -1.1075 H         1 <0>         0.0964
     36 H17        -4.8865   -3.4165   -1.8953 H         1 <0>         0.0964
@<TRIPOS>BOND
     1    1    2 1
     2    1   21 1
     3    1   22 1
     4    1   23 1
     5    2    3 1
     6    2   24 1
     7    2   25 1
     8    3    4 3
     9    4    5 1
    10    5    6 1
    11    5    7 1
    12    5    8 1
    13    7   26 1
    14    7   27 1
    15    7   28 1
    16    8   15 1
    17    8    9 1
    18    8   18 1
    19    9   10 1
    20    9   11 2
    21   11   12 1
    22   12   13 2
    23   12   14 am
    24   14   15 am
    25   14   17 1
    26   15   16 2
    27   17   29 1
    28   17   30 1
    29   17   31 1
    30   18   19 1
    31   18   32 1
    32   18   33 1
    33   19   20 2
    34   19   34 1
    35   20   35 1
    36   20   36 1
@<TRIPOS>MOLECULE
ZINC01530930
   36    36     0     0     0
SMALL
USER_CHARGES
(5R)-5-allyl-1-methyl-5-[(1R)-1-methylpent-2-ynyl]hexahydropyrimidine-2,4,6-trione
@<TRIPOS>ATOM
      1 C1          2.1439    6.4522    1.3893 C.3       1 <0>        -0.1466
      2 C2          3.5439    5.8393    1.3181 C.3       1 <0>        -0.0027
      3 C3          3.4357    4.3717    1.2819 C.1       1 <0>        -0.1812
      4 C4          3.3494    3.2012    1.2531 C.1       1 <0>        -0.1551
      5 C5          3.2412    1.7336    1.2169 C.3       1 <0>         0.0510
      6 H1          4.2630    1.3295    1.1661 H         1 <0>         0.0950
      7 C6          2.5334    1.2431    2.4815 C.3       1 <0>        -0.1475
      8 C7          2.4366    1.3118   -0.0141 C.3       1 <0>        -0.1468
      9 C8          1.1193    2.0639    0.0025 C.2       1 <0>         0.5275
     10 O1          1.0874    3.2758    0.0089 O.3       1 <0>        -0.5359
     11 N1         -0.0161    1.3337    0.0094 N.2       1 <0>        -0.7135
     12 C9          0.0021   -0.0041    0.0020 C.2       1 <0>         0.6639
     13 O2         -1.0667   -0.5817    0.0095 O.2       1 <0>        -0.5927
     14 N2          1.1112   -0.7522   -0.0126 N.am      1 <0>        -0.5896
     15 C10         2.3440   -0.2024   -0.0214 C.2       1 <0>         0.5483
     16 O3          3.3403   -0.8931   -0.0342 O.2       1 <0>        -0.5294
     17 C11         0.9839   -2.2116   -0.0187 C.3       1 <0>         0.0747
     18 C12         3.2177    1.7469   -1.2557 C.3       1 <0>        -0.0659
     19 C13         2.4968    1.2771   -2.4929 C.2       1 <0>        -0.1568
     20 C14         2.1664    2.1367   -3.4246 C.2       1 <0>        -0.1847
     21 H2          2.2247    7.5489    1.4164 H         1 <0>         0.0584
     22 H3          1.6350    6.0995    2.2985 H         1 <0>         0.0533
     23 H4          1.5654    6.1489    0.5042 H         1 <0>         0.0582
     24 H5          4.0528    6.1920    0.4089 H         1 <0>         0.0849
     25 H6          4.1224    6.1426    2.2031 H         1 <0>         0.0756
     26 H7          2.4525    0.1464    2.4545 H         1 <0>         0.0581
     27 H8          1.5269    1.6838    2.5327 H         1 <0>         0.0668
     28 H9          3.1119    1.5464    3.3665 H         1 <0>         0.0630
     29 H10         1.9852   -2.6669   -0.0308 H         1 <0>         0.0800
     30 H11         0.4267   -2.5273   -0.9131 H         1 <0>         0.0637
     31 H12         0.4443   -2.5363    0.8831 H         1 <0>         0.0644
     32 H13         3.2982    2.8438   -1.2725 H         1 <0>         0.0871
     33 H14         4.2250    1.3057   -1.2285 H         1 <0>         0.0778
     34 H15         2.2480    0.2124   -2.6136 H         1 <0>         0.1013
     35 H16         1.6402    1.7938   -4.3277 H         1 <0>         0.0961
     36 H17         2.4152    3.2014   -3.3039 H         1 <0>         0.0992
@<TRIPOS>BOND
     1    1    2 1
     2    1   21 1
     3    1   22 1
     4    1   23 1
     5    2    3 1
     6    2   24 1
     7    2   25 1
     8    3    4 3
     9    4    5 1
    10    5    6 1
    11    5    7 1
    12    5    8 1
    13    7   26 1
    14    7   27 1
    15    7   28 1
    16    8   15 1
    17    8    9 1
    18    8   18 1
    19    9   10 1
    20    9   11 2
    21   11   12 1
    22   12   13 2
    23   12   14 am
    24   14   15 am
    25   14   17 1
    26   15   16 2
    27   17   29 1
    28   17   30 1
    29   17   31 1
    30   18   19 1
    31   18   32 1
    32   18   33 1
    33   19   20 2
    34   19   34 1
    35   20   35 1
    36   20   36 1
@<TRIPOS>MOLECULE
ZINC03876068
   36    36     0     0     0
SMALL
USER_CHARGES
(5R)-5-allyl-1-methyl-5-[(1S)-1-methylpent-2-ynyl]hexahydropyrimidine-2,4,6-trione
@<TRIPOS>ATOM
      1 C1         -3.0995    8.1003   -0.0789 C.3       1 <0>        -0.1474
      2 C2         -2.3135    7.6949    1.1696 C.3       1 <0>        -0.0020
      3 C3         -2.1754    6.2299    1.2083 C.1       1 <0>        -0.1927
      4 C4         -2.0653    5.0615    1.2391 C.1       1 <0>        -0.1557
      5 C5         -1.9272    3.5965    1.2778 C.3       1 <0>         0.0469
      6 H1         -2.9413    3.1712    1.3060 H         1 <0>         0.1074
      7 C6         -1.1412    3.1911    2.5263 C.3       1 <0>        -0.1468
      8 C7         -1.1815    3.1214    0.0292 C.3       1 <0>        -0.1435
      9 C8         -1.2003    1.6045    0.0166 C.2       1 <0>         0.5283
     10 O1         -2.2446    0.9887    0.0183 O.3       1 <0>        -0.5520
     11 N1         -0.0111    0.9658    0.0074 N.2       1 <0>        -0.7109
     12 C9          1.1499    1.6306   -0.0002 C.2       1 <0>         0.6658
     13 O2          2.1734    0.9762   -0.0135 O.2       1 <0>        -0.5909
     14 N2          1.2662    2.9635    0.0055 N.am      1 <0>        -0.5920
     15 C10         0.1875    3.7749    0.0196 C.2       1 <0>         0.5458
     16 O3          0.3083    4.9812    0.0250 O.2       1 <0>        -0.5156
     17 C11         2.6042    3.5601   -0.0036 C.3       1 <0>         0.0761
     18 C12        -1.9523    3.6131   -1.1976 C.3       1 <0>        -0.0669
     19 C13        -1.2034    3.2304   -2.4481 C.2       1 <0>        -0.1562
     20 C14        -1.8035    2.5395   -3.3854 C.2       1 <0>        -0.1856
     21 H2         -3.2027    9.1951   -0.1078 H         1 <0>         0.0588
     22 H3         -4.0975    7.6386   -0.0499 H         1 <0>         0.0557
     23 H4         -2.5634    7.7587   -0.9766 H         1 <0>         0.0587
     24 H5         -1.3155    8.1566    1.1406 H         1 <0>         0.0810
     25 H6         -2.8495    8.0365    2.0674 H         1 <0>         0.0768
     26 H7         -1.0380    2.0963    2.5552 H         1 <0>         0.0723
     27 H8         -1.6773    3.5327    3.4240 H         1 <0>         0.0633
     28 H9         -0.1432    3.6528    2.4973 H         1 <0>         0.0535
     29 H10         2.5168    4.6566    0.0027 H         1 <0>         0.0790
     30 H11         3.1421    3.2404   -0.9083 H         1 <0>         0.0630
     31 H12         3.1583    3.2313    0.8879 H         1 <0>         0.0633
     32 H13        -2.9507    3.1517   -1.2125 H         1 <0>         0.0846
     33 H14        -2.0547    4.7074   -1.1520 H         1 <0>         0.0813
     34 H15        -0.1528    3.5312   -2.5738 H         1 <0>         0.1005
     35 H16        -1.2568    2.2602   -4.2982 H         1 <0>         0.0961
     36 H17        -2.8541    2.2387   -3.2597 H         1 <0>         0.1001
@<TRIPOS>BOND
     1    1    2 1
     2    1   21 1
     3    1   22 1
     4    1   23 1
     5    2    3 1
     6    2   24 1
     7    2   25 1
     8    3    4 3
     9    4    5 1
    10    5    6 1
    11    5    7 1
    12    5    8 1
    13    7   26 1
    14    7   27 1
    15    7   28 1
    16    8   15 1
    17    8    9 1
    18    8   18 1
    19    9   10 1
    20    9   11 2
    21   11   12 1
    22   12   13 2
    23   12   14 am
    24   14   15 am
    25   14   17 1
    26   15   16 2
    27   17   29 1
    28   17   30 1
    29   17   31 1
    30   18   19 1
    31   18   32 1
    32   18   33 1
    33   19   20 2
    34   19   34 1
    35   20   35 1
    36   20   36 1
@<TRIPOS>MOLECULE
ZINC19795961
   53    56     0     0     0
SMALL
USER_CHARGES

@<TRIPOS>ATOM
      1 C1         -0.1171    1.5168   -0.0178 C.3       1 <0>        -0.0492
      2 N1         -0.0721    0.0486   -0.0048 N.4       1 <0>        -0.3720
      3 C2          0.7416   -0.4064    1.1304 C.3       1 <0>        -0.0508
      4 C3         -1.4357   -0.4819    0.1263 C.3       1 <0>         0.0386
      5 H1         -1.8859   -0.0788    1.0335 H         1 <0>         0.1467
      6 C4         -2.2544   -0.0357   -1.0695 C.3       1 <0>        -0.0833
      7 H2         -2.0971    1.0338   -1.2090 H         1 <0>         0.1049
      8 C5         -3.7474   -0.2724   -0.8588 C.3       1 <0>        -0.1102
      9 C6         -4.5079    0.5049   -1.9369 C.3       1 <0>        -0.0201
     10 H3         -4.4066    1.5728   -1.7430 H         1 <0>         0.1042
     11 C7         -5.9873    0.1290   -1.8914 C.3       1 <0>         0.1466
     12 H4         -6.4119    0.4479   -0.9395 H         1 <0>         0.0868
     13 C8         -6.7289    0.7991   -3.0180 C.ar      1 <0>        -0.0637
     14 C9         -8.0222    1.2415   -2.8287 C.ar      1 <0>        -0.0508
     15 C10        -8.7118    1.8463   -3.8680 C.ar      1 <0>        -0.0667
     16 C11        -8.1140    2.0110   -5.1022 C.ar      1 <0>        -0.1391
     17 C12        -6.8130    1.5766   -5.3079 C.ar      1 <0>         0.1676
     18 C13        -6.1111    0.9730   -4.2572 C.ar      1 <0>        -0.1551
     19 C14        -4.7127    0.5377   -4.4457 C.2       1 <0>         0.4330
     20 O1         -4.2322    0.4620   -5.5623 O.2       1 <0>        -0.4098
     21 C15        -3.9429    0.1976   -3.2977 C.2       1 <0>        -0.2225
     22 C16        -2.7471   -0.3700   -3.4795 C.2       1 <0>         0.1676
     23 C17        -1.8205   -0.7510   -2.3495 C.3       1 <0>         0.0993
     24 C18        -1.9720   -2.2443   -2.1276 C.2       1 <0>         0.3845
     25 O2         -2.3883   -2.9616   -3.0139 O.2       1 <0>        -0.4711
     26 C19        -1.6070   -2.8034   -0.8270 C.2       1 <0>        -0.4737
     27 C20        -1.3679   -1.9755    0.2391 C.2       1 <0>         0.3025
     28 O3         -1.0620   -2.5224    1.4249 O.3       1 <0>        -0.5646
     29 C21        -1.4956   -4.2615   -0.6622 C.2       1 <0>         0.5863
     30 O4         -1.1120   -4.7266    0.3942 O.2       1 <0>        -0.5515
     31 N2         -1.8186   -5.0816   -1.6819 N.am      1 <0>        -0.8708
     32 O5         -0.4700   -0.4170   -2.6760 O.3       1 <0>        -0.5550
     33 O6         -2.3467   -0.6098   -4.7441 O.3       1 <0>        -0.4418
     34 O7         -6.2238    1.7355   -6.5199 O.3       1 <0>        -0.4733
     35 Cl1        -8.7883    1.0395   -1.2841 Cl        1 <0>        -0.0530
     36 O8         -6.1199   -1.2882   -2.0178 O.3       1 <0>        -0.5374
     37 H5          0.8988    1.9116   -0.0065 H         1 <0>         0.1207
     38 H6         -0.6289    1.8567   -0.9182 H         1 <0>         0.1194
     39 H7         -0.6546    1.8717    0.8615 H         1 <0>         0.1178
     40 H8          0.3002   -0.0481    2.0605 H         1 <0>         0.1178
     41 H9          0.7749   -1.4958    1.1401 H         1 <0>         0.1414
     42 H10         1.7533   -0.0127    1.0331 H         1 <0>         0.1125
     43 H11        -3.9677   -1.3362   -0.9474 H         1 <0>         0.1054
     44 H12        -4.0411    0.0842    0.1284 H         1 <0>         0.0960
     45 H13        -9.7234    2.1907   -3.7118 H         1 <0>         0.1462
     46 H14        -8.6604    2.4783   -5.9081 H         1 <0>         0.1481
     47 H15        -2.0432   -4.7111   -2.5497 H         1 <0>         0.4024
     48 H16        -1.8266   -6.0422   -1.5478 H         1 <0>         0.3856
     49 H17        -0.1428   -0.8434   -3.4799 H         1 <0>         0.4044
     50 H18        -1.4907   -0.2189   -4.9664 H         1 <0>         0.3896
     51 H19        -5.7493    2.5722   -6.6199 H         1 <0>         0.3965
     52 H20        -7.0346   -1.6011   -1.9973 H         1 <0>         0.3835
     53 H21         0.3364   -0.2830   -0.8658 H         1 <0>         0.4292
@<TRIPOS>BOND
     1    1    2 1
     2    1   37 1
     3    1   38 1
     4    1   39 1
     5    2    3 1
     6    2    4 1
     7    2   53 1
     8    3   40 1
     9    3   41 1
    10    3   42 1
    11    4    5 1
    12    4   27 1
    13    4    6 1
    14    6    7 1
    15    6   23 1
    16    6    8 1
    17    8    9 1
    18    8   43 1
    19    8   44 1
    20    9   10 1
    21    9   21 1
    22    9   11 1
    23   11   12 1
    24   11   13 1
    25   11   36 1
    26   13   18 ar
    27   13   14 ar
    28   14   15 ar
    29   14   35 1
    30   15   16 ar
    31   15   45 1
    32   16   17 ar
    33   16   46 1
    34   17   18 ar
    35   17   34 1
    36   18   19 1
    37   19   20 2
    38   19   21 1
    39   21   22 2
    40   22   23 1
    41   22   33 1
    42   23   24 1
    43   23   32 1
    44   24   25 2
    45   24   26 1
    46   26   27 2
    47   26   29 1
    48   27   28 1
    49   29   30 2
    50   29   31 am
    51   31   47 1
    52   31   48 1
    53   32   49 1
    54   33   50 1
    55   34   51 1
    56   36   52 1
@<TRIPOS>MOLECULE
ZINC18847043
   28    29     0     0     0
SMALL
USER_CHARGES

@<TRIPOS>ATOM
      1 C1          0.7460    0.6521    3.0935 C.ar      1 <0>        -0.0736
      2 C2          0.9374   -0.7070    2.9159 C.ar      1 <0>        -0.1114
      3 C3          1.9005   -1.1625    2.0401 C.ar      1 <0>        -0.1366
      4 C4          2.6837   -0.2480    1.3310 C.ar      1 <0>        -0.0358
      5 C5          2.4845    1.1227    1.5151 C.ar      1 <0>        -0.0390
      6 C6          1.5178    1.5636    2.3946 C.ar      1 <0>        -0.1114
      7 N1          3.6409   -0.6924    0.4613 N.2       1 <0>        -0.1008
      8 N2          3.6234   -1.9159    0.0531 N.2       1 <0>        -0.1554
      9 C7          2.4583   -2.6196    0.0616 C.ar      1 <0>        -0.1258
     10 C8          1.2310   -1.9691   -0.1377 C.ar      1 <0>         0.0690
     11 C9          0.0839   -2.7165   -0.1212 C.ar      1 <0>        -0.2359
     12 C10         0.1615   -4.0918    0.0910 C.ar      1 <0>         0.4936
     13 N3          1.3290   -4.6906    0.2780 N.ar      1 <0>        -0.5437
     14 C11         2.4654   -4.0121    0.2645 C.ar      1 <0>         0.4911
     15 N4          3.6656   -4.6742    0.4573 N.pl3     1 <0>        -0.7993
     16 N5         -1.0015   -4.8456    0.1072 N.pl3     1 <0>        -0.8086
     17 H1         -0.0125    1.0030    3.7775 H         1 <0>         0.1396
     18 H2          0.3313   -1.4126    3.4647 H         1 <0>         0.1331
     19 H3          2.0493   -2.2233    1.9030 H         1 <0>         0.1241
     20 H4          3.0864    1.8352    0.9706 H         1 <0>         0.1488
     21 H5          1.3627    2.6227    2.5379 H         1 <0>         0.1451
     22 H6          1.1920   -0.9021   -0.3002 H         1 <0>         0.1699
     23 H7         -0.8752   -2.2431   -0.2713 H         1 <0>         0.1840
     24 H8          4.4993   -4.1783    0.4523 H         1 <0>         0.4485
     25 H9          3.6729   -5.6340    0.5974 H         1 <0>         0.4225
     26 H10        -1.8602   -4.4155   -0.0284 H         1 <0>         0.4445
     27 H11        -0.9566   -5.8034    0.2542 H         1 <0>         0.4227
     28 H12         1.3515   -5.6493    0.4236 H         1 <0>         0.4410
@<TRIPOS>BOND
     1    1    6 ar
     2    1    2 ar
     3    1   17 1
     4    2    3 ar
     5    2   18 1
     6    3    4 ar
     7    3   19 1
     8    4    5 ar
     9    4    7 1
    10    5    6 ar
    11    5   20 1
    12    6   21 1
    13    7    8 2
    14    8    9 1
    15    9   14 ar
    16    9   10 ar
    17   10   11 ar
    18   10   22 1
    19   11   12 ar
    20   11   23 1
    21   12   13 ar
    22   12   16 1
    23   13   14 ar
    24   13   28 1
    25   14   15 1
    26   15   24 1
    27   15   25 1
    28   16   26 1
    29   16   27 1
@<TRIPOS>MOLECULE
ZINC04811698
   33    33     0     0     0
SMALL
USER_CHARGES

@<TRIPOS>ATOM
      1 C1         -0.0187    1.5258    0.0104 C.3       1 <0>        -0.1565
      2 C2          0.0021   -0.0041    0.0020 C.3       1 <0>        -0.0948
      3 C3         -1.4333   -0.5336    0.0129 C.3       1 <0>        -0.1376
      4 C4         -2.0615   -0.1672    1.3436 C.2       1 <0>         0.4939
      5 O1         -1.5184   -0.5754    2.5017 O.3       1 <0>        -0.6340
      6 N1         -3.1491    0.5595    1.3274 N.2       1 <0>        -0.6750
      7 C5         -3.7167    0.9836    0.1935 C.2       1 <0>         0.6729
      8 O2         -4.7270    1.6550    0.2855 O.2       1 <0>        -0.5767
      9 N2         -3.2542    0.7238   -1.0359 N.am      1 <0>        -0.7014
     10 C6         -2.1379   -0.0139   -1.2267 C.2       1 <0>         0.5486
     11 O3         -1.7177   -0.2497   -2.3392 O.2       1 <0>        -0.5236
     12 C7         -1.3750   -2.0599   -0.0773 C.3       1 <0>        -0.0905
     13 C8         -2.7963   -2.6260   -0.0689 C.3       1 <0>        -0.1210
     14 C9         -2.7380   -4.1522   -0.1591 C.3       1 <0>        -0.0919
     15 C10        -2.0718   -4.7123    1.0993 C.3       1 <0>        -0.1470
     16 C11        -4.1575   -4.7108   -0.2764 C.3       1 <0>        -0.1461
     17 H1          1.0039    1.9031    0.0027 H         1 <0>         0.0585
     18 H2         -0.5459    1.8868   -0.8726 H         1 <0>         0.0456
     19 H3         -0.5289    1.8773    0.9072 H         1 <0>         0.0612
     20 H4          0.5123   -0.3556   -0.8948 H         1 <0>         0.0688
     21 H5          0.5293   -0.3651    0.8851 H         1 <0>         0.0850
     22 H6         -3.7306    1.0721   -1.8058 H         1 <0>         0.3964
     23 H7         -0.8736   -2.3504   -1.0005 H         1 <0>         0.0681
     24 H8         -0.8221   -2.4534    0.7758 H         1 <0>         0.0872
     25 H9         -3.2977   -2.3354    0.8543 H         1 <0>         0.0708
     26 H10        -3.3492   -2.2325   -0.9220 H         1 <0>         0.0521
     27 H11        -2.1597   -4.4425   -1.0362 H         1 <0>         0.0664
     28 H12        -2.0303   -5.7996    1.0350 H         1 <0>         0.0479
     29 H13        -1.0605   -4.3144    1.1828 H         1 <0>         0.0588
     30 H14        -2.6501   -4.4220    1.9764 H         1 <0>         0.0568
     31 H15        -4.6321   -4.3118   -1.1728 H         1 <0>         0.0510
     32 H16        -4.1160   -5.7981   -0.3406 H         1 <0>         0.0510
     33 H17        -4.7358   -4.4205    0.6008 H         1 <0>         0.0550
@<TRIPOS>BOND
     1    1    2 1
     2    1   17 1
     3    1   18 1
     4    1   19 1
     5    2    3 1
     6    2   20 1
     7    2   21 1
     8    3   10 1
     9    3    4 1
    10    3   12 1
    11    4    5 1
    12    4    6 2
    13    6    7 1
    14    7    8 2
    15    7    9 am
    16    9   10 am
    17    9   22 1
    18   10   11 2
    19   12   13 1
    20   12   23 1
    21   12   24 1
    22   13   14 1
    23   13   25 1
    24   13   26 1
    25   14   15 1
    26   14   16 1
    27   14   27 1
    28   15   28 1
    29   15   29 1
    30   15   30 1
    31   16   31 1
    32   16   32 1
    33   16   33 1
@<TRIPOS>MOLECULE
ZINC04811698
   33    33     0     0     0
SMALL
USER_CHARGES

@<TRIPOS>ATOM
      1 C1         -0.0187    1.5258    0.0104 C.3       1 <0>        -0.1570
      2 C2          0.0021   -0.0041    0.0020 C.3       1 <0>        -0.0951
      3 C3          0.7421   -0.5109    1.2415 C.3       1 <0>        -0.1652
      4 C4          2.1999   -0.1071    1.1196 C.2       1 <0>         0.5489
      5 O1          2.8766   -0.4584    0.1771 O.2       1 <0>        -0.5267
      6 N1          2.7113    0.6606    2.1072 N.am      1 <0>        -0.6853
      7 C5          1.9525    1.0543    3.1644 C.2       1 <0>         0.6418
      8 O2          2.5406    1.8178    4.1028 O.3       1 <0>        -0.6619
      9 N2          0.6904    0.7454    3.3371 N.2       1 <0>        -0.6811
     10 C6          0.0085   -0.0055    2.4691 C.2       1 <0>         0.5354
     11 O3         -1.1612   -0.2755    2.6565 O.2       1 <0>        -0.5389
     12 C7          0.6738   -2.0394    1.2414 C.3       1 <0>        -0.0913
     13 C8          1.4056   -2.5827    2.4703 C.3       1 <0>        -0.1214
     14 C9          1.3372   -4.1112    2.4701 C.3       1 <0>        -0.0930
     15 C10         2.1083   -4.6560    1.2661 C.3       1 <0>        -0.1469
     16 C11         1.9592   -4.6496    3.7601 C.3       1 <0>        -0.1464
     17 H1          1.0039    1.9031    0.0027 H         1 <0>         0.0475
     18 H2         -0.5459    1.8868   -0.8726 H         1 <0>         0.0585
     19 H3         -0.5289    1.8773    0.9072 H         1 <0>         0.0619
     20 H4         -1.0205   -0.3814    0.0098 H         1 <0>         0.0806
     21 H5          0.5123   -0.3556   -0.8948 H         1 <0>         0.0707
     22 H6          3.6401    0.9366    2.0610 H         1 <0>         0.3987
     23 H7         -0.3687   -2.3565    1.2696 H         1 <0>         0.0804
     24 H8          1.1462   -2.4241    0.3376 H         1 <0>         0.0736
     25 H9          2.4480   -2.2656    2.4420 H         1 <0>         0.0558
     26 H10         0.9331   -2.1980    3.3741 H         1 <0>         0.0684
     27 H11         0.2962   -4.4284    2.4087 H         1 <0>         0.0703
     28 H12         2.0596   -5.7450    1.2660 H         1 <0>         0.0496
     29 H13         1.6652   -4.2724    0.3471 H         1 <0>         0.0572
     30 H14         3.1493   -4.3389    1.3275 H         1 <0>         0.0524
     31 H15         1.4099   -4.2615    4.6179 H         1 <0>         0.0553
     32 H16         1.9105   -5.7386    3.7600 H         1 <0>         0.0511
     33 H17         3.0002   -4.3325    3.8215 H         1 <0>         0.0524
@<TRIPOS>BOND
     1    1    2 1
     2    1   17 1
     3    1   18 1
     4    1   19 1
     5    2    3 1
     6    2   20 1
     7    2   21 1
     8    3   10 1
     9    3    4 1
    10    3   12 1
    11    4    5 2
    12    4    6 am
    13    6    7 1
    14    6   22 1
    15    7    8 1
    16    7    9 2
    17    9   10 1
    18   10   11 2
    19   12   13 1
    20   12   23 1
    21   12   24 1
    22   13   14 1
    23   13   25 1
    24   13   26 1
    25   14   15 1
    26   14   16 1
    27   14   27 1
    28   15   28 1
    29   15   29 1
    30   15   30 1
    31   16   31 1
    32   16   32 1
    33   16   33 1
@<TRIPOS>MOLECULE
ZINC01909090
   21    20     0     0     0
SMALL
USER_CHARGES

@<TRIPOS>ATOM
      1 C1         -0.0173    1.4248    0.0099 C.3       1 <0>         0.0325
      2 O1          0.0021   -0.0041    0.0020 O.3       1 <0>        -0.3532
      3 C2          0.5984   -0.5997   -1.0427 C.2       1 <0>         0.4610
      4 O2          1.0877    0.0699   -1.9214 O.2       1 <0>        -0.5076
      5 C3          0.6575   -2.1036   -1.1196 C.3       1 <0>        -0.1063
      6 C4          1.3848   -2.5205   -2.3995 C.3       1 <0>        -0.1607
      7 C5          1.4440   -4.0244   -2.4765 C.2       1 <0>         0.3542
      8 O3          0.9550   -4.6936   -1.5983 O.2       1 <0>        -0.4359
      9 C6          2.1134   -4.6931   -3.6494 C.3       1 <0>         0.0112
     10 N1          2.0386   -6.1515   -3.4898 N.3       1 <0>        -0.8421
     11 H1          1.0053    1.8021    0.0021 H         1 <0>         0.0618
     12 H2         -0.5445    1.7859   -0.8732 H         1 <0>         0.0615
     13 H3         -0.5275    1.7763    0.9067 H         1 <0>         0.1038
     14 H4          1.1948   -2.4908   -0.2539 H         1 <0>         0.1142
     15 H5         -0.3550   -2.5070   -1.1292 H         1 <0>         0.1130
     16 H6          0.8476   -2.1333   -3.2653 H         1 <0>         0.1089
     17 H7          2.3973   -2.1171   -2.3900 H         1 <0>         0.1104
     18 H8          1.6084   -4.4020   -4.5704 H         1 <0>         0.0647
     19 H9          3.1582   -4.3858   -3.6951 H         1 <0>         0.1092
     20 H10         1.0824   -6.4546   -3.3803 H         1 <0>         0.3491
     21 H11         2.4810   -6.6232   -4.2643 H         1 <0>         0.3501
@<TRIPOS>BOND
     1    1    2 1
     2    1   11 1
     3    1   12 1
     4    1   13 1
     5    2    3 1
     6    3    4 2
     7    3    5 1
     8    5    6 1
     9    5   14 1
    10    5   15 1
    11    6    7 1
    12    6   16 1
    13    6   17 1
    14    7    8 2
    15    7    9 1
    16    9   10 1
    17    9   18 1
    18    9   19 1
    19   10   20 1
    20   10   21 1
@<TRIPOS>MOLECULE
ZINC03953037
   44    45     0     0     0
SMALL
USER_CHARGES

@<TRIPOS>ATOM
      1 C1          2.0763    1.5400    1.0749 C.3       1 <0>        -0.1898
      2 C2          2.0886    0.0101    1.0747 C.3       1 <0>        -0.0171
      3 N1          0.7126   -0.4907    1.1921 N.4       1 <0>        -0.5075
      4 C3          0.7116   -1.9542    1.0652 C.3       1 <0>         0.0682
      5 H1          1.1917   -2.2265    0.1253 H         1 <0>         0.1647
      6 C4          1.5092   -2.5482    2.2152 C.3       1 <0>         0.0909
      7 N2          1.5133   -4.0226    2.1618 N.pl3     1 <0>        -0.9789
      8 S1          0.0190   -4.7457    2.4028 S.o2      1 <0>         2.7115
      9 O1         -0.2658   -4.6749    3.7932 O.2       1 <0>        -0.9213
     10 O2          0.0162   -5.9646    1.6724 O.2       1 <0>        -0.9224
     11 C5         -1.0762   -3.6422    1.5883 C.2       1 <0>        -0.7709
     12 C6         -0.7274   -2.4451    1.0428 C.2       1 <0>        -0.0734
     13 C7         -1.7749   -1.7197    0.4678 C.2       1 <0>        -0.1075
     14 C8         -3.0320   -2.2204    0.4627 C.2       1 <0>        -0.5845
     15 S2         -2.8090   -3.7869    1.2888 S.3       1 <0>         0.4019
     16 S3         -4.5062   -1.5121   -0.1927 S.o2      1 <0>         2.5818
     17 O3         -5.5893   -2.1053    0.5104 O.2       1 <0>        -1.0351
     18 O4         -4.3002   -0.1066   -0.2291 O.2       1 <0>        -1.0413
     19 N3         -4.6325   -2.0129   -1.7661 N.2       1 <0>        -1.3217
     20 C9          2.7319   -4.7977    1.9161 C.3       1 <0>         0.1279
     21 C10         3.4753   -5.0114    3.2362 C.3       1 <0>        -0.1467
     22 C11         4.7480   -5.8209    2.9796 C.3       1 <0>         0.0605
     23 O5          5.4423   -6.0204    4.2126 O.3       1 <0>        -0.3916
     24 C12         6.6522   -6.7697    4.0836 C.3       1 <0>         0.0305
     25 H2          1.6368    1.8998    2.0052 H         1 <0>         0.0828
     26 H3          3.0973    1.9116    0.9877 H         1 <0>         0.1079
     27 H4          1.4859    1.8987    0.2317 H         1 <0>         0.0843
     28 H5          2.5280   -0.3497    0.1444 H         1 <0>         0.1356
     29 H6          2.6789   -0.3486    1.9179 H         1 <0>         0.1344
     30 H7          0.3357   -0.2309    2.0913 H         1 <0>         0.4324
     31 H8          2.5361   -2.1866    2.1612 H         1 <0>         0.1259
     32 H9          1.0682   -2.2267    3.1587 H         1 <0>         0.1045
     33 H10        -1.5798   -0.7540    0.0254 H         1 <0>         0.1463
     34 H11        -5.3853   -1.7274   -2.3070 H         1 <0>         0.3370
     35 H12         2.4675   -5.7644    1.4875 H         1 <0>         0.1042
     36 H13         3.3735   -4.2555    1.2215 H         1 <0>         0.0930
     37 H14         3.7397   -4.0447    3.6649 H         1 <0>         0.0806
     38 H15         2.8337   -5.5536    3.9308 H         1 <0>         0.0792
     39 H16         4.4835   -6.7875    2.5510 H         1 <0>         0.0562
     40 H17         5.3896   -5.2787    2.2850 H         1 <0>         0.0533
     41 H18         6.4273   -7.7561    3.6779 H         1 <0>         0.0449
     42 H19         7.3333   -6.2472    3.4119 H         1 <0>         0.0428
     43 H20         7.1190   -6.8774    5.0627 H         1 <0>         0.0893
     44 H21         0.1450   -0.0893    0.4608 H         1 <0>         0.4372
@<TRIPOS>BOND
     1    1    2 1
     2    1   25 1
     3    1   26 1
     4    1   27 1
     5    2    3 1
     6    2   28 1
     7    2   29 1
     8    3    4 1
     9    3   30 1
    10    3   44 1
    11    4    5 1
    12    4   12 1
    13    4    6 1
    14    6    7 1
    15    6   31 1
    16    6   32 1
    17    7    8 1
    18    7   20 1
    19    8    9 2
    20    8   10 2
    21    8   11 1
    22   11   15 1
    23   11   12 2
    24   12   13 1
    25   13   14 2
    26   13   33 1
    27   14   15 1
    28   14   16 1
    29   16   17 2
    30   16   18 2
    31   16   19 1
    32   19   34 1
    33   20   21 1
    34   20   35 1
    35   20   36 1
    36   21   22 1
    37   21   37 1
    38   21   38 1
    39   22   23 1
    40   22   39 1
    41   22   40 1
    42   23   24 1
    43   24   41 1
    44   24   42 1
    45   24   43 1
@<TRIPOS>MOLECULE
ZINC14879985
   54    57     0     0     0
SMALL
USER_CHARGES

@<TRIPOS>ATOM
      1 C1          0.5002   -0.9928    2.0000 C.3       1 <0>        -0.0686
      2 N1          0.0312   -0.9412    0.6088 N.4       1 <0>        -0.3702
      3 C2          0.7358   -1.9579   -0.1835 C.3       1 <0>        -0.0633
      4 C3         -1.4136   -1.2039    0.5691 C.3       1 <0>        -0.0121
      5 H1         -1.9298   -0.5032    1.2254 H         1 <0>         0.1817
      6 C4         -1.9249   -1.0357   -0.8622 C.3       1 <0>        -0.0683
      7 H2         -1.4090   -1.7386   -1.5162 H         1 <0>         0.1077
      8 C5         -1.6846    0.3823   -1.3544 C.3       1 <0>         0.1211
      9 H3         -0.6577    0.6627   -1.1204 H         1 <0>         0.0446
     10 C6         -2.6148    1.4042   -0.7444 C.3       1 <0>         0.0016
     11 H4         -3.1665    1.8580   -1.5676 H         1 <0>         0.0787
     12 C7         -1.8270    2.5147   -0.0897 C.2       1 <0>        -0.0345
     13 C8         -0.5092    2.5942   -0.2286 C.2       1 <0>        -0.2482
     14 C9         -2.5716    3.5099    0.7111 C.ar      1 <0>        -0.0271
     15 C10        -2.1251    4.8165    0.8476 C.ar      1 <0>        -0.1247
     16 C11        -2.8586    5.7166    1.6002 C.ar      1 <0>        -0.0975
     17 C12        -4.0331    5.3254    2.2171 C.ar      1 <0>        -0.1519
     18 C13        -4.4954    4.0227    2.0964 C.ar      1 <0>         0.1457
     19 C14        -3.7650    3.0992    1.3421 C.ar      1 <0>        -0.1440
     20 C15        -4.2127    1.7047    1.1983 C.2       1 <0>         0.4177
     21 C16        -3.6299    0.8680    0.2102 C.2       1 <0>        -0.4764
     22 C17        -4.0422   -0.4174    0.1708 C.2       1 <0>         0.2741
     23 O1         -4.9807   -0.8695    1.0266 O.3       1 <0>        -0.5951
     24 C18        -3.4350   -1.3285   -0.8863 C.3       1 <0>         0.1119
     25 C19        -3.6488   -2.7552   -0.4401 C.2       1 <0>         0.4208
     26 O2         -4.5742   -3.3997   -0.8908 O.2       1 <0>        -0.4892
     27 C20        -2.7738   -3.3402    0.4998 C.2       1 <0>        -0.4439
     28 C21        -2.9921   -4.6616    0.9184 C.2       1 <0>         0.5550
     29 N2         -3.9148   -5.4251    0.2923 N.pl3     1 <0>        -0.8101
     30 O3         -2.2833   -5.1682    1.9423 O.3       1 <0>        -0.4229
     31 C22        -1.6824   -2.6153    1.0267 C.2       1 <0>         0.4289
     32 O4         -0.9552   -3.1314    1.8511 O.2       1 <0>        -0.4754
     33 O5         -3.9849   -1.0908   -2.1836 O.3       1 <0>        -0.5026
     34 O6         -5.0762    1.2654    1.9369 O.2       1 <0>        -0.4566
     35 O7         -5.6480    3.6475    2.7060 O.3       1 <0>        -0.4775
     36 O8         -1.8511    0.4071   -2.7735 O.3       1 <0>        -0.5385
     37 H5          1.5371   -0.6601    2.0464 H         1 <0>         0.1184
     38 H6         -0.1185   -0.3406    2.6164 H         1 <0>         0.1192
     39 H7          0.4299   -2.0159    2.3694 H         1 <0>         0.1566
     40 H8          0.4391   -1.8737   -1.2289 H         1 <0>         0.1228
     41 H9          1.8115   -1.8044   -0.0975 H         1 <0>         0.1272
     42 H10         0.4795   -2.9500    0.1882 H         1 <0>         0.1278
     43 H11         0.0041    1.9246   -0.9028 H         1 <0>         0.1050
     44 H12         0.0496    3.3286    0.3325 H         1 <0>         0.1081
     45 H13        -1.2089    5.1294    0.3690 H         1 <0>         0.1270
     46 H14        -2.5108    6.7334    1.7071 H         1 <0>         0.1279
     47 H15        -4.5956    6.0408    2.7987 H         1 <0>         0.1294
     48 H16        -4.1405   -5.2505   -0.6348 H         1 <0>         0.4380
     49 H17        -4.3514   -6.1476    0.7700 H         1 <0>         0.4125
     50 H18        -2.5035   -6.0848    2.1577 H         1 <0>         0.4093
     51 H19        -4.9345   -1.2624   -2.2458 H         1 <0>         0.3891
     52 H20        -6.4380    3.7674    2.1614 H         1 <0>         0.3910
     53 H21        -1.7149    1.2784   -3.1703 H         1 <0>         0.3811
     54 H22         0.2175   -0.0269    0.2248 H         1 <0>         0.4186
@<TRIPOS>BOND
     1    1    2 1
     2    1   37 1
     3    1   38 1
     4    1   39 1
     5    2    3 1
     6    2    4 1
     7    2   54 1
     8    3   40 1
     9    3   41 1
    10    3   42 1
    11    4    5 1
    12    4   31 1
    13    4    6 1
    14    6    7 1
    15    6   24 1
    16    6    8 1
    17    8    9 1
    18    8   10 1
    19    8   36 1
    20   10   11 1
    21   10   21 1
    22   10   12 1
    23   12   13 2
    24   12   14 1
    25   13   43 1
    26   13   44 1
    27   14   19 ar
    28   14   15 ar
    29   15   16 ar
    30   15   45 1
    31   16   17 ar
    32   16   46 1
    33   17   18 ar
    34   17   47 1
    35   18   19 ar
    36   18   35 1
    37   19   20 1
    38   20   21 1
    39   20   34 2
    40   21   22 2
    41   22   23 1
    42   22   24 1
    43   24   25 1
    44   24   33 1
    45   25   26 2
    46   25   27 1
    47   27   28 2
    48   27   31 1
    49   28   29 1
    50   28   30 1
    51   29   48 1
    52   29   49 1
    53   30   50 1
    54   31   32 2
    55   33   51 1
    56   35   52 1
    57   36   53 1
@<TRIPOS>MOLECULE
ZINC18115268
   33    33     0     0     0
SMALL
USER_CHARGES

@<TRIPOS>ATOM
      1 C1          0.0242    1.1611   -0.0026 C.3       1 <0>        -0.0724
      2 C2         -0.7028    1.6591   -1.2251 C.2       1 <0>         0.0373
      3 C3         -0.1480    1.9207   -2.4239 C.2       1 <0>        -0.0248
      4 N1         -1.1582    2.3472   -3.2433 N.pl3     1 <0>        -0.5622
      5 C4         -2.2959    2.3313   -2.5160 C.2       1 <0>         0.2037
      6 N2         -2.0168    1.9140   -1.3115 N.2       1 <0>        -0.4917
      7 H1         -1.0727    2.6114   -4.1727 H         1 <0>         0.4214
      8 C5          1.3058    1.7728   -2.7925 C.3       1 <0>        -0.0093
      9 S1          1.6018    0.0989   -3.4257 S.3       1 <0>        -0.2167
     10 C6          3.3728    0.0850   -3.8182 C.3       1 <0>        -0.1167
     11 C7          3.7622   -1.2880   -4.3696 C.3       1 <0>         0.1660
     12 N3          5.1924   -1.2992   -4.6867 N.pl3     1 <0>        -0.7202
     13 C8          5.7739   -2.4344   -5.1994 C.2       1 <0>         0.6225
     14 N4          5.0533   -3.5000   -5.4034 N.2       1 <0>        -0.6209
     15 C9          5.6461   -4.6720   -6.0525 C.3       1 <0>         0.0329
     16 N5          7.1207   -2.4450   -5.4980 N.pl3     1 <0>        -0.6293
     17 C10         7.8915   -1.3742   -5.1893 C.1       1 <0>         0.3967
     18 N6          8.5377   -0.4765   -4.9305 N.1       1 <0>        -0.4007
     19 H2          0.0304    0.0711   -0.0024 H         1 <0>         0.0751
     20 H3          1.0497    1.5302   -0.0141 H         1 <0>         0.0670
     21 H4         -0.4817    1.5217    0.8931 H         1 <0>         0.0726
     22 H5         -3.2753    2.6133   -2.8733 H         1 <0>         0.2127
     23 H6          1.5618    2.5024   -3.5608 H         1 <0>         0.0889
     24 H7          1.9233    1.9422   -1.9104 H         1 <0>         0.1061
     25 H8          3.5854    0.8501   -4.5649 H         1 <0>         0.0875
     26 H9          3.9469    0.2898   -2.9146 H         1 <0>         0.0900
     27 H10         3.5495   -2.0531   -3.6229 H         1 <0>         0.0831
     28 H11         3.1881   -1.4928   -5.2733 H         1 <0>         0.0818
     29 H12         5.7291   -0.5056   -4.5348 H         1 <0>         0.4043
     30 H13         4.8965   -5.4589   -6.1364 H         1 <0>         0.0851
     31 H14         5.9975   -4.3975   -7.0471 H         1 <0>         0.0469
     32 H15         6.4852   -5.0316   -5.4570 H         1 <0>         0.0433
     33 H16         7.5159   -3.2190   -5.9289 H         1 <0>         0.4399
@<TRIPOS>BOND
     1    1   19 1
     2    1   20 1
     3    1   21 1
     4    1    2 1
     5    2    6 1
     6    2    3 2
     7    3    8 1
     8    3    4 1
     9    4    5 1
    10    4    7 1
    11    5   22 1
    12    5    6 2
    13    8    9 1
    14    8   23 1
    15    8   24 1
    16    9   10 1
    17   10   11 1
    18   10   25 1
    19   10   26 1
    20   11   12 1
    21   11   27 1
    22   11   28 1
    23   12   13 1
    24   12   29 1
    25   13   14 2
    26   13   16 1
    27   14   15 1
    28   15   30 1
    29   15   31 1
    30   15   32 1
    31   16   17 1
    32   16   33 1
    33   17   18 3
@<TRIPOS>MOLECULE
ZINC18115268
   34    34     0     0     0
SMALL
USER_CHARGES

@<TRIPOS>ATOM
      1 C1         -0.0921    1.4864   -0.0274 C.3       1 <0>        -0.1049
      2 C2         -0.0704   -0.0204   -0.0381 C.2       1 <0>         0.0914
      3 C3         -0.0533   -0.8153   -1.1250 C.2       1 <0>         0.0338
      4 N1         -0.0372   -2.0896   -0.7069 N.pl3     1 <0>        -0.4668
      5 C4         -0.0437   -2.1146    0.5978 C.cat     1 <0>         0.3149
      6 N2         -0.0584   -0.8441    1.0551 N.pl3     1 <0>        -0.5107
      7 H1         -0.0618   -0.5669    1.9847 H         1 <0>         0.4674
      8 C5         -0.0523   -0.3539   -2.5596 C.3       1 <0>        -0.0456
      9 S1          1.6581   -0.1442   -3.1263 S.3       1 <0>        -0.1974
     10 C6          1.4863    0.4062   -4.8462 C.3       1 <0>        -0.1114
     11 C7          2.8738    0.6237   -5.4531 C.3       1 <0>         0.1650
     12 N3          2.7350    1.0682   -6.8421 N.pl3     1 <0>        -0.7223
     13 C8          3.8550    1.3286   -7.5956 C.2       1 <0>         0.6225
     14 N4          5.0394    1.1800   -7.0746 N.2       1 <0>        -0.6204
     15 C9          6.2325    1.3488   -7.9078 C.3       1 <0>         0.0309
     16 N5          3.7243    1.7472   -8.9036 N.pl3     1 <0>        -0.6281
     17 C10         2.4952    2.0025   -9.4137 C.1       1 <0>         0.3949
     18 N6          1.4648    2.2166   -9.8413 N.1       1 <0>        -0.3964
     19 H2          0.9302    1.8645   -0.0245 H         1 <0>         0.1107
     20 H3         -0.6110    1.8486   -0.9149 H         1 <0>         0.1066
     21 H4         -0.6113    1.8359    0.8651 H         1 <0>         0.0961
     22 H5         -0.0347   -3.0041    1.2104 H         1 <0>         0.2700
     23 H6         -0.5523   -1.0971   -3.1807 H         1 <0>         0.1146
     24 H7         -0.5795    0.5971   -2.6358 H         1 <0>         0.1277
     25 H8          0.9540   -0.3530   -5.4192 H         1 <0>         0.0963
     26 H9          0.9268    1.3413   -4.8743 H         1 <0>         0.0980
     27 H10         3.4061    1.3830   -4.8801 H         1 <0>         0.0839
     28 H11         3.4333   -0.3113   -5.4250 H         1 <0>         0.0832
     29 H12         1.8529    1.1789   -7.2301 H         1 <0>         0.4056
     30 H13         6.2112    0.6263   -8.7236 H         1 <0>         0.0498
     31 H14         6.2498    2.3588   -8.3174 H         1 <0>         0.0461
     32 H15         7.1243    1.1870   -7.3023 H         1 <0>         0.0867
     33 H16         4.5123    1.8587   -9.4582 H         1 <0>         0.4418
     34 H17        -0.0232   -2.8696   -1.2834 H         1 <0>         0.4662
@<TRIPOS>BOND
     1    1    2 1
     2    1   19 1
     3    1   20 1
     4    1   21 1
     5    2    6 1
     6    2    3 2
     7    3    4 1
     8    3    8 1
     9    4    5 2
    10    4   34 1
    11    5    6 1
    12    5   22 1
    13    6    7 1
    14    8    9 1
    15    8   23 1
    16    8   24 1
    17    9   10 1
    18   10   11 1
    19   10   25 1
    20   10   26 1
    21   11   12 1
    22   11   27 1
    23   11   28 1
    24   12   13 1
    25   12   29 1
    26   13   14 2
    27   13   16 1
    28   14   15 1
    29   15   30 1
    30   15   31 1
    31   15   32 1
    32   16   17 1
    33   16   33 1
    34   17   18 3
@<TRIPOS>MOLECULE
ZINC08214692
   73    75     0     0     0
SMALL
USER_CHARGES

@<TRIPOS>ATOM
      1 C1         -0.0152    1.1540   -0.1171 C.3       1 <0>        -0.1743
      2 C2          1.3190    1.8013    0.2593 C.3       1 <0>         0.0345
      3 H1          1.6969    1.3482    1.1758 H         1 <0>         0.1821
      4 C3          2.3278    1.5843   -0.8704 C.3       1 <0>         0.0647
      5 H2          1.9499    2.0374   -1.7869 H         1 <0>         0.1072
      6 C4          2.5327    0.0841   -1.0900 C.3       1 <0>         0.1077
      7 H3          2.9106   -0.3690   -0.1735 H         1 <0>         0.1039
      8 C5          1.1985   -0.5631   -1.4664 C.3       1 <0>         0.0278
      9 H4          0.8206   -0.1100   -2.3830 H         1 <0>         0.1204
     10 C6          0.1897   -0.3462   -0.3367 C.3       1 <0>         0.0101
     11 H5          0.5675   -0.7993    0.5798 H         1 <0>         0.1765
     12 N1         -1.0914   -0.9677   -0.6982 N.4       1 <0>        -0.6398
     13 O1          1.3899   -1.9643   -1.6715 O.3       1 <0>        -0.3667
     14 C7          0.5244   -2.5310   -2.6574 C.3       1 <0>         0.2047
     15 H6         -0.4961   -2.1890   -2.4849 H         1 <0>         0.1008
     16 C8          0.5738   -4.0582   -2.5630 C.3       1 <0>         0.0662
     17 H7         -0.1165   -4.4905   -3.2873 H         1 <0>         0.1284
     18 C9          1.9978   -4.5348   -2.8654 C.3       1 <0>         0.0469
     19 H8          2.6812   -4.1428   -2.1121 H         1 <0>         0.1658
     20 C10         2.4124   -4.0242   -4.2488 C.3       1 <0>         0.0561
     21 H9          1.7592   -4.4557   -5.0072 H         1 <0>         0.1056
     22 C11         2.2919   -2.4983   -4.2780 C.3       1 <0>         0.0699
     23 H10         2.9752   -2.0656   -3.5473 H         1 <0>         0.0979
     24 O2          0.9509   -2.1212   -3.9582 O.3       1 <0>        -0.3449
     25 C12         2.6470   -1.9851   -5.6750 C.3       1 <0>         0.0754
     26 O3          2.6355   -0.5562   -5.6747 O.3       1 <0>        -0.5674
     27 O4          3.7650   -4.4027   -4.5119 O.3       1 <0>        -0.5489
     28 N2          2.0384   -6.0032   -2.8492 N.4       1 <0>        -0.6291
     29 O5          0.2017   -4.4675   -1.2454 O.3       1 <0>        -0.5390
     30 O6          3.4749   -0.1185   -2.1451 O.3       1 <0>        -0.5231
     31 O7          3.5740    2.1889   -0.5188 O.3       1 <0>        -0.3770
     32 C13         4.3308    2.6537   -1.6382 C.3       1 <0>         0.2545
     33 H11         4.4031    1.8608   -2.3826 H         1 <0>         0.1625
     34 C14         5.7355    3.0495   -1.1759 C.3       1 <0>         0.0808
     35 H12         6.3263    3.3659   -2.0355 H         1 <0>         0.1217
     36 C15         5.6288    4.2043   -0.1752 C.3       1 <0>        -0.1996
     37 C16         4.8839    5.3693   -0.8342 C.3       1 <0>         0.0827
     38 H13         5.4575    5.7326   -1.6869 H         1 <0>         0.0932
     39 C17         3.5121    4.8839   -1.3097 C.3       1 <0>         0.0772
     40 H14         2.9241    4.5585   -0.4516 H         1 <0>         0.0509
     41 O8          3.6821    3.7897   -2.2134 O.3       1 <0>        -0.3827
     42 C18         2.7855    6.0263   -2.0225 C.3       1 <0>        -0.0090
     43 N3          1.4247    5.5980   -2.3729 N.4       1 <0>        -0.6393
     44 O9          4.7159    6.4258    0.1133 O.3       1 <0>        -0.5692
     45 N4          6.3829    1.8987   -0.5321 N.3       1 <0>        -0.8296
     46 N5          1.1223    3.2417    0.4702 N.4       1 <0>        -0.6361
     47 H15        -0.7339    1.3086    0.6877 H         1 <0>         0.1439
     48 H16        -0.3931    1.6071   -1.0337 H         1 <0>         0.1217
     49 H17        -1.3798   -0.6393   -1.6076 H         1 <0>         0.4388
     50 H18        -0.9840   -1.9707   -0.7213 H         1 <0>         0.4406
     51 H19         3.6398   -2.3404   -5.9511 H         1 <0>         0.0799
     52 H20         1.9160   -2.3542   -6.3943 H         1 <0>         0.0710
     53 H21         2.8523   -0.1609   -6.5302 H         1 <0>         0.4035
     54 H22         4.0945   -4.1115   -5.3732 H         1 <0>         0.4200
     55 H23         1.4076   -6.3648   -3.5488 H         1 <0>         0.4384
     56 H24         2.9768   -6.3159   -3.0485 H         1 <0>         0.4550
     57 H25        -0.6890   -4.1948   -0.9857 H         1 <0>         0.4022
     58 H26         3.7412   -1.0406   -2.2629 H         1 <0>         0.4023
     59 H27         5.0804    3.8731    0.7067 H         1 <0>         0.0816
     60 H28         6.6281    4.5283    0.1157 H         1 <0>         0.1005
     61 H29         2.7352    6.8925   -1.3627 H         1 <0>         0.1727
     62 H30         3.3279    6.2917   -2.9299 H         1 <0>         0.1655
     63 H31         0.9456    6.3514   -2.8429 H         1 <0>         0.4595
     64 H32         1.4712    4.7962   -2.9836 H         1 <0>         0.4391
     65 H33         5.5467    6.7787    0.4602 H         1 <0>         0.4165
     66 H34         7.3122    2.1355   -0.2182 H         1 <0>         0.3682
     67 H35         0.4570    3.3848    1.2152 H         1 <0>         0.4581
     68 H36         2.0022    3.6686    0.7184 H         1 <0>         0.4522
     69 H37         0.9226    5.3523   -1.5328 H         1 <0>         0.4065
     70 H38         0.7725    3.6611   -0.3782 H         1 <0>         0.4124
     71 H39        -1.7903   -0.7199   -0.0139 H         1 <0>         0.4536
     72 H40         1.7587   -6.3374   -1.9392 H         1 <0>         0.4492
     73 H41         5.8222    1.5480    0.2299 H         1 <0>         0.3464
@<TRIPOS>BOND
     1    1   10 1
     2    1    2 1
     3    1   47 1
     4    1   48 1
     5    2    3 1
     6    2    4 1
     7    2   46 1
     8    4    5 1
     9    4    6 1
    10    4   31 1
    11    6    7 1
    12    6    8 1
    13    6   30 1
    14    8    9 1
    15    8   10 1
    16    8   13 1
    17   10   11 1
    18   10   12 1
    19   12   49 1
    20   12   50 1
    21   12   71 1
    22   13   14 1
    23   14   15 1
    24   14   24 1
    25   14   16 1
    26   16   17 1
    27   16   18 1
    28   16   29 1
    29   18   19 1
    30   18   20 1
    31   18   28 1
    32   20   21 1
    33   20   22 1
    34   20   27 1
    35   22   23 1
    36   22   24 1
    37   22   25 1
    38   25   26 1
    39   25   51 1
    40   25   52 1
    41   26   53 1
    42   27   54 1
    43   28   55 1
    44   28   56 1
    45   28   72 1
    46   29   57 1
    47   30   58 1
    48   31   32 1
    49   32   33 1
    50   32   41 1
    51   32   34 1
    52   34   35 1
    53   34   36 1
    54   34   45 1
    55   36   37 1
    56   36   59 1
    57   36   60 1
    58   37   38 1
    59   37   39 1
    60   37   44 1
    61   39   40 1
    62   39   41 1
    63   39   42 1
    64   42   43 1
    65   42   61 1
    66   42   62 1
    67   43   63 1
    68   43   64 1
    69   43   69 1
    70   44   65 1
    71   45   66 1
    72   45   73 1
    73   46   67 1
    74   46   68 1
    75   46   70 1
@<TRIPOS>MOLECULE
ZINC08214692
   73    75     0     0     0
SMALL
USER_CHARGES

@<TRIPOS>ATOM
      1 C1         -0.0152    1.1540   -0.1171 C.3       1 <0>        -0.1761
      2 C2          1.3190    1.8013    0.2593 C.3       1 <0>         0.0373
      3 H1          1.6969    1.3482    1.1759 H         1 <0>         0.1852
      4 C3          2.3278    1.5843   -0.8704 C.3       1 <0>         0.0696
      5 H2          1.9499    2.0374   -1.7869 H         1 <0>         0.1188
      6 C4          2.5327    0.0841   -1.0900 C.3       1 <0>         0.1050
      7 H3          2.9106   -0.3690   -0.1735 H         1 <0>         0.1061
      8 C5          1.1985   -0.5632   -1.4664 C.3       1 <0>         0.0236
      9 H4          0.8206   -0.1100   -2.3829 H         1 <0>         0.1177
     10 C6          0.1897   -0.3462   -0.3367 C.3       1 <0>         0.0087
     11 H5          0.5676   -0.7993    0.5798 H         1 <0>         0.1749
     12 N1         -1.0914   -0.9677   -0.6982 N.4       1 <0>        -0.6392
     13 O1          1.3899   -1.9643   -1.6715 O.3       1 <0>        -0.3576
     14 C7          0.5244   -2.5310   -2.6573 C.3       1 <0>         0.2067
     15 H6         -0.4961   -2.1890   -2.4849 H         1 <0>         0.0816
     16 C8          0.5738   -4.0582   -2.5630 C.3       1 <0>         0.0432
     17 H7         -0.1165   -4.4905   -3.2873 H         1 <0>         0.1043
     18 C9          1.9978   -4.5348   -2.8654 C.3       1 <0>         0.1179
     19 H8          2.6812   -4.1428   -2.1121 H         1 <0>         0.1017
     20 C10         2.4124   -4.0242   -4.2488 C.3       1 <0>         0.0820
     21 H9          1.7592   -4.4557   -5.0071 H         1 <0>         0.0774
     22 C11         2.2919   -2.4983   -4.2780 C.3       1 <0>         0.0718
     23 H10         2.9752   -2.0656   -3.5473 H         1 <0>         0.0787
     24 O2          0.9509   -2.1212   -3.9582 O.3       1 <0>        -0.3562
     25 C12         2.6470   -1.9851   -5.6750 C.3       1 <0>         0.0732
     26 O3          2.6355   -0.5562   -5.6747 O.3       1 <0>        -0.5765
     27 O4          3.7649   -4.4028   -4.5119 O.3       1 <0>        -0.5284
     28 N2          2.0384   -6.0032   -2.8492 N.3       1 <0>        -0.8224
     29 O5          0.2017   -4.4675   -1.2454 O.3       1 <0>        -0.5319
     30 O6          3.4749   -0.1185   -2.1451 O.3       1 <0>        -0.5471
     31 O7          3.5740    2.1889   -0.5188 O.3       1 <0>        -0.3979
     32 C13         4.3308    2.6537   -1.6382 C.3       1 <0>         0.2322
     33 H11         4.4031    1.8608   -2.3826 H         1 <0>         0.1769
     34 C14         5.7355    3.0495   -1.1759 C.3       1 <0>         0.0162
     35 H12         6.3263    3.3659   -2.0355 H         1 <0>         0.1823
     36 C15         5.6288    4.2043   -0.1752 C.3       1 <0>        -0.1917
     37 C16         4.8839    5.3693   -0.8342 C.3       1 <0>         0.0910
     38 H13         5.4575    5.7326   -1.6870 H         1 <0>         0.1063
     39 C17         3.5121    4.8839   -1.3097 C.3       1 <0>         0.0646
     40 H14         2.9241    4.5585   -0.4516 H         1 <0>         0.0625
     41 O8          3.6821    3.7897   -2.2134 O.3       1 <0>        -0.3574
     42 C18         2.7855    6.0263   -2.0225 C.3       1 <0>        -0.0071
     43 N3          1.4247    5.5980   -2.3729 N.4       1 <0>        -0.6409
     44 O9          4.7159    6.4258    0.1132 O.3       1 <0>        -0.5529
     45 N4          6.3829    1.8987   -0.5321 N.4       1 <0>        -0.6304
     46 N5          1.1223    3.2417    0.4702 N.4       1 <0>        -0.6376
     47 H15        -0.7339    1.3086    0.6877 H         1 <0>         0.1465
     48 H16        -0.3931    1.6071   -1.0336 H         1 <0>         0.1230
     49 H17        -1.3798   -0.6393   -1.6076 H         1 <0>         0.4393
     50 H18        -0.9840   -1.9707   -0.7213 H         1 <0>         0.4484
     51 H19         3.6398   -2.3404   -5.9511 H         1 <0>         0.0778
     52 H20         1.9159   -2.3542   -6.3943 H         1 <0>         0.0695
     53 H21         2.8523   -0.1609   -6.5302 H         1 <0>         0.3955
     54 H22         4.0944   -4.1115   -5.3732 H         1 <0>         0.3863
     55 H23         1.7622   -6.3626   -1.9477 H         1 <0>         0.3617
     56 H24        -0.6890   -4.1948   -0.9856 H         1 <0>         0.3742
     57 H25         3.7412   -1.0406   -2.2629 H         1 <0>         0.4183
     58 H26         5.0804    3.8731    0.7067 H         1 <0>         0.1091
     59 H27         6.6281    4.5283    0.1156 H         1 <0>         0.1283
     60 H28         2.7352    6.8925   -1.3627 H         1 <0>         0.1788
     61 H29         3.3279    6.2917   -2.9299 H         1 <0>         0.1694
     62 H30         1.4712    4.7962   -2.9835 H         1 <0>         0.4408
     63 H31         0.9226    5.3523   -1.5328 H         1 <0>         0.4092
     64 H32         5.5467    6.7787    0.4602 H         1 <0>         0.4236
     65 H33         6.4483    1.1375   -1.1912 H         1 <0>         0.4484
     66 H34         7.3086    2.1604   -0.2277 H         1 <0>         0.4564
     67 H35         0.4570    3.3848    1.2152 H         1 <0>         0.4629
     68 H36         2.0022    3.6686    0.7184 H         1 <0>         0.4467
     69 H37         0.9456    6.3514   -2.8429 H         1 <0>         0.4648
     70 H38         0.7725    3.6611   -0.3782 H         1 <0>         0.4140
     71 H39        -1.7903   -0.7199   -0.0139 H         1 <0>         0.4515
     72 H40         1.4641   -6.3889   -3.5837 H         1 <0>         0.3505
     73 H41         5.8366    1.6078    0.2647 H         1 <0>         0.4390
@<TRIPOS>BOND
     1    1   10 1
     2    1    2 1
     3    1   47 1
     4    1   48 1
     5    2    3 1
     6    2    4 1
     7    2   46 1
     8    4    5 1
     9    4    6 1
    10    4   31 1
    11    6    7 1
    12    6    8 1
    13    6   30 1
    14    8    9 1
    15    8   10 1
    16    8   13 1
    17   10   11 1
    18   10   12 1
    19   12   49 1
    20   12   50 1
    21   12   71 1
    22   13   14 1
    23   14   15 1
    24   14   24 1
    25   14   16 1
    26   16   17 1
    27   16   18 1
    28   16   29 1
    29   18   19 1
    30   18   20 1
    31   18   28 1
    32   20   21 1
    33   20   22 1
    34   20   27 1
    35   22   23 1
    36   22   24 1
    37   22   25 1
    38   25   26 1
    39   25   51 1
    40   25   52 1
    41   26   53 1
    42   27   54 1
    43   28   55 1
    44   28   72 1
    45   29   56 1
    46   30   57 1
    47   31   32 1
    48   32   33 1
    49   32   41 1
    50   32   34 1
    51   34   35 1
    52   34   36 1
    53   34   45 1
    54   36   37 1
    55   36   58 1
    56   36   59 1
    57   37   38 1
    58   37   39 1
    59   37   44 1
    60   39   40 1
    61   39   41 1
    62   39   42 1
    63   42   43 1
    64   42   60 1
    65   42   61 1
    66   43   62 1
    67   43   63 1
    68   43   69 1
    69   44   64 1
    70   45   65 1
    71   45   66 1
    72   45   73 1
    73   46   67 1
    74   46   68 1
    75   46   70 1
@<TRIPOS>MOLECULE
ZINC20444137
   41    40     0     0     0
SMALL
USER_CHARGES

@<TRIPOS>ATOM
      1 C1         -0.0187    1.5258    0.0104 C.3       1 <0>        -0.1556
      2 C2          0.0021   -0.0041    0.0020 C.3       1 <0>        -0.1248
      3 C3         -1.4333   -0.5336    0.0129 C.3       1 <0>        -0.1178
      4 C4         -1.4126   -2.0635    0.0045 C.3       1 <0>        -0.1480
      5 C5         -2.8479   -2.5931    0.0153 C.3       1 <0>        -0.0097
      6 N1         -2.8280   -4.0619    0.0072 N.4       1 <0>        -0.3824
      7 C6         -2.2481   -4.5368   -1.2561 C.3       1 <0>        -0.0592
      8 C7         -4.1998   -4.5710    0.1383 C.3       1 <0>        -0.0325
      9 C8         -4.1687   -6.0962    0.2553 C.3       1 <0>        -0.1392
     10 C9         -5.5974   -6.6263    0.3918 C.3       1 <0>        -1.0178
     11 O1         -6.2018   -6.0711    1.5616 O.3       1 <0>        -0.5221
     12 P1         -6.5657   -6.1491   -1.0772 P.3       1 <0>         2.2313
     13 O2         -8.0084   -6.6844   -0.9394 O.2       1 <0>        -1.0667
     14 O3         -6.5983   -4.5441   -1.2003 O.3       1 <0>        -0.9047
     15 O4         -5.9123   -6.7494   -2.3420 O.3       1 <0>        -1.0527
     16 P2         -5.5605   -8.4436    0.5311 P.3       1 <0>         2.2558
     17 O5         -4.9071   -9.0439   -0.7337 O.2       1 <0>        -1.0684
     18 O6         -4.7399   -8.8481    1.7761 O.3       1 <0>        -1.1038
     19 O7         -7.0639   -9.0015    0.6748 O.3       1 <0>        -0.8765
     20 H1          1.0039    1.9031    0.0027 H         1 <0>         0.0571
     21 H2         -0.5459    1.8868   -0.8726 H         1 <0>         0.0562
     22 H3         -0.5289    1.8773    0.9072 H         1 <0>         0.0553
     23 H4          0.5123   -0.3556   -0.8948 H         1 <0>         0.0649
     24 H5          0.5293   -0.3651    0.8851 H         1 <0>         0.0638
     25 H6         -1.9435   -0.1821    0.9097 H         1 <0>         0.0713
     26 H7         -1.9605   -0.1726   -0.8702 H         1 <0>         0.0733
     27 H8         -0.9024   -2.4150   -0.8923 H         1 <0>         0.0874
     28 H9         -0.8854   -2.4246    0.8875 H         1 <0>         0.0829
     29 H10        -3.3581   -2.2415    0.9121 H         1 <0>         0.1238
     30 H11        -3.3751   -2.2320   -0.8677 H         1 <0>         0.1289
     31 H12        -2.8505   -4.1770   -2.0903 H         1 <0>         0.1253
     32 H13        -1.2303   -4.1591   -1.3534 H         1 <0>         0.1184
     33 H14        -2.2333   -5.6267   -1.2621 H         1 <0>         0.1327
     34 H15        -4.6607   -4.1474    1.0306 H         1 <0>         0.1261
     35 H16        -4.7787   -4.2856   -0.7400 H         1 <0>         0.1544
     36 H17        -3.7078   -6.5197   -0.6371 H         1 <0>         0.1089
     37 H18        -3.5898   -6.3815    1.1336 H         1 <0>         0.0814
     38 H19        -5.7384   -6.2850    2.3830 H         1 <0>         0.3532
     39 H20        -7.1205   -9.9637    0.7536 H         1 <0>         0.4036
     40 H21        -2.2705   -4.3950    0.7794 H         1 <0>         0.4166
     41 H22        -7.0976   -4.2181   -1.9615 H         1 <0>         0.4093
@<TRIPOS>BOND
     1    1    2 1
     2    1   20 1
     3    1   21 1
     4    1   22 1
     5    2    3 1
     6    2   23 1
     7    2   24 1
     8    3    4 1
     9    3   25 1
    10    3   26 1
    11    4    5 1
    12    4   27 1
    13    4   28 1
    14    5    6 1
    15    5   29 1
    16    5   30 1
    17    6    7 1
    18    6    8 1
    19    6   40 1
    20    7   31 1
    21    7   32 1
    22    7   33 1
    23    8    9 1
    24    8   34 1
    25    8   35 1
    26    9   10 1
    27    9   36 1
    28    9   37 1
    29   10   11 1
    30   10   12 1
    31   10   16 1
    32   11   38 1
    33   12   13 2
    34   12   14 1
    35   12   15 1
    36   14   41 1
    37   16   17 2
    38   16   18 1
    39   16   19 1
    40   19   39 1
@<TRIPOS>MOLECULE
ZINC52981502
   79    81     0     0     0
SMALL
USER_CHARGES

@<TRIPOS>ATOM
      1 C1         -1.6893    0.6227   -1.1147 C.3       1 <0>        -0.1965
      2 C2         -1.4820   -0.8744   -1.3527 C.3       1 <0>        -0.0148
      3 N1         -0.7960   -1.4639   -0.1951 N.4       1 <0>        -0.5062
      4 C3         -0.5970   -2.9013   -0.4236 C.3       1 <0>         0.0394
      5 H1         -0.0673   -3.0497   -1.3646 H         1 <0>         0.1676
      6 C4         -1.9563   -3.6005   -0.4877 C.3       1 <0>        -0.1788
      7 C5         -1.7490   -5.0976   -0.7257 C.3       1 <0>         0.0411
      8 H2         -1.2193   -5.2460   -1.6667 H         1 <0>         0.1750
      9 C6         -0.9259   -5.6872    0.4214 C.3       1 <0>         0.0315
     10 H3         -1.4556   -5.5388    1.3624 H         1 <0>         0.1254
     11 C7          0.4335   -4.9879    0.4856 C.3       1 <0>         0.0678
     12 H4          0.9632   -5.1363   -0.4554 H         1 <0>         0.1054
     13 C8          0.2262   -3.4908    0.7235 C.3       1 <0>         0.0747
     14 H5         -0.3035   -3.3424    1.6645 H         1 <0>         0.1111
     15 O1          1.4958   -2.8377    0.7835 O.3       1 <0>        -0.3813
     16 C9          2.0538   -2.7713    2.0974 C.3       1 <0>         0.2240
     17 H6          1.3077   -2.3814    2.7898 H         1 <0>         0.1293
     18 C10         3.2740   -1.8468    2.0877 C.3       1 <0>         0.0736
     19 H7          3.6759   -1.7636    3.0974 H         1 <0>         0.1272
     20 C11         4.3414   -2.4327    1.1584 C.3       1 <0>         0.0536
     21 H8          3.9569   -2.4699    0.1392 H         1 <0>         0.1560
     22 C12         4.6889   -3.8490    1.6271 C.3       1 <0>         0.0736
     23 C13         3.4141   -4.6962    1.6545 C.3       1 <0>         0.0573
     24 O2          2.4519   -4.0794    2.5127 O.3       1 <0>        -0.3282
     25 C14         5.6975   -4.4741    0.6612 C.3       1 <0>        -0.2027
     26 O3          5.2534   -3.7930    2.9387 O.3       1 <0>        -0.5523
     27 N2          5.5444   -1.5906    1.1993 N.4       1 <0>        -0.5042
     28 C15         5.2386   -0.2718    0.6291 C.3       1 <0>        -0.0541
     29 O4          2.8890   -0.5529    1.6189 O.3       1 <0>        -0.5490
     30 O5          1.2022   -5.5386    1.5569 O.3       1 <0>        -0.5005
     31 O6         -0.7323   -7.0854    0.1992 O.3       1 <0>        -0.3932
     32 C16        -0.7106   -7.8666    1.3956 C.3       1 <0>         0.2294
     33 H9         -0.0284   -7.4159    2.1164 H         1 <0>         0.1627
     34 C17        -0.2523   -9.2955    1.0725 C.3       1 <0>         0.0047
     35 H10        -0.2873   -9.9059    1.9749 H         1 <0>         0.1854
     36 C18        -1.2024   -9.8751    0.0189 C.3       1 <0>        -0.1260
     37 C19        -2.6253   -9.5994    0.4220 C.2       1 <0>        -0.1313
     38 C20        -2.9405   -8.6944    1.3106 C.2       1 <0>        -0.0449
     39 O7         -2.0264   -7.9324    1.9526 O.3       1 <0>        -0.3063
     40 C21        -4.3975   -8.4892    1.6364 C.3       1 <0>         0.0552
     41 N3         -4.6447   -8.8680    3.0341 N.4       1 <0>        -0.6393
     42 N4          1.1183   -9.2693    0.5447 N.4       1 <0>        -0.6333
     43 N5         -3.0542   -5.7690   -0.7873 N.4       1 <0>        -0.6365
     44 H11        -0.7218    1.1066   -0.9805 H         1 <0>         0.0893
     45 H12        -2.1982    1.0600   -1.9737 H         1 <0>         0.1226
     46 H13        -2.2954    0.7679   -0.2205 H         1 <0>         0.0872
     47 H14        -2.4494   -1.3584   -1.4869 H         1 <0>         0.1314
     48 H15        -0.8758   -1.0197   -2.2469 H         1 <0>         0.1413
     49 H16         0.0995   -1.0159   -0.0708 H         1 <0>         0.4464
     50 H17        -2.4860   -3.4521    0.4533 H         1 <0>         0.1264
     51 H18        -2.5427   -3.1805   -1.3049 H         1 <0>         0.1462
     52 H19         3.0063   -4.7721    0.6465 H         1 <0>         0.0732
     53 H20         3.6481   -5.6931    2.0281 H         1 <0>         0.1162
     54 H21         6.6027   -3.8672    0.6381 H         1 <0>         0.0795
     55 H22         5.9442   -5.4819    0.9955 H         1 <0>         0.0963
     56 H23         5.2643   -4.5186   -0.3380 H         1 <0>         0.0842
     57 H24         5.4977   -4.6565    3.2989 H         1 <0>         0.4148
     58 H25         5.8463   -1.4816    2.1559 H         1 <0>         0.4409
     59 H26         4.7609   -0.3980   -0.3425 H         1 <0>         0.1186
     60 H27         4.5662    0.2660    1.2975 H         1 <0>         0.1466
     61 H28         6.1618    0.2951    0.5091 H         1 <0>         0.1325
     62 H29         2.2112   -0.1244    2.1592 H         1 <0>         0.4050
     63 H30         1.4345   -6.4695    1.4364 H         1 <0>         0.3655
     64 H31        -1.0015   -9.4104   -0.9464 H         1 <0>         0.1262
     65 H32        -1.0481  -10.9515   -0.0567 H         1 <0>         0.1435
     66 H33        -3.4164  -10.1708   -0.0408 H         1 <0>         0.1725
     67 H34        -4.6577   -7.4405    1.4927 H         1 <0>         0.1379
     68 H35        -5.0076   -9.1084    0.9788 H         1 <0>         0.1704
     69 H36        -4.0799   -8.2949    3.6428 H         1 <0>         0.4416
     70 H37        -5.6202   -8.7306    3.2522 H         1 <0>         0.4569
     71 H38         1.7365   -8.8678    1.2337 H         1 <0>         0.4431
     72 H39         1.4156  -10.2101    0.3337 H         1 <0>         0.4634
     73 H40        -3.5970   -5.3802   -1.5438 H         1 <0>         0.4585
     74 H41        -2.9175   -6.7563   -0.9442 H         1 <0>         0.4444
     75 H42        -3.5445   -5.6316    0.0838 H         1 <0>         0.4342
     76 H43        -1.3571   -1.3294    0.6327 H         1 <0>         0.4308
     77 H44         6.2789   -2.0271    0.6626 H         1 <0>         0.4329
     78 H45        -4.4038   -9.8388    3.1671 H         1 <0>         0.4482
     79 H46         1.1443   -8.7119   -0.2960 H         1 <0>         0.4398
@<TRIPOS>BOND
     1    1    2 1
     2    1   44 1
     3    1   45 1
     4    1   46 1
     5    2    3 1
     6    2   47 1
     7    2   48 1
     8    3    4 1
     9    3   49 1
    10    3   76 1
    11    4    5 1
    12    4   13 1
    13    4    6 1
    14    6    7 1
    15    6   50 1
    16    6   51 1
    17    7    8 1
    18    7    9 1
    19    7   43 1
    20    9   10 1
    21    9   11 1
    22    9   31 1
    23   11   12 1
    24   11   13 1
    25   11   30 1
    26   13   14 1
    27   13   15 1
    28   15   16 1
    29   16   17 1
    30   16   24 1
    31   16   18 1
    32   18   19 1
    33   18   20 1
    34   18   29 1
    35   20   21 1
    36   20   22 1
    37   20   27 1
    38   22   23 1
    39   22   25 1
    40   22   26 1
    41   23   24 1
    42   23   52 1
    43   23   53 1
    44   25   54 1
    45   25   55 1
    46   25   56 1
    47   26   57 1
    48   27   28 1
    49   27   58 1
    50   27   77 1
    51   28   59 1
    52   28   60 1
    53   28   61 1
    54   29   62 1
    55   30   63 1
    56   31   32 1
    57   32   33 1
    58   32   39 1
    59   32   34 1
    60   34   35 1
    61   34   36 1
    62   34   42 1
    63   36   37 1
    64   36   64 1
    65   36   65 1
    66   37   38 2
    67   37   66 1
    68   38   39 1
    69   38   40 1
    70   40   41 1
    71   40   67 1
    72   40   68 1
    73   41   69 1
    74   41   70 1
    75   41   78 1
    76   42   71 1
    77   42   72 1
    78   42   79 1
    79   43   73 1
    80   43   74 1
    81   43   75 1
@<TRIPOS>MOLECULE
ZINC52981502
   78    80     0     0     0
SMALL
USER_CHARGES

@<TRIPOS>ATOM
      1 C1         -0.1354    0.6265    2.0229 C.3       1 <0>        -0.1952
      2 C2         -0.4074   -0.8781    1.9676 C.3       1 <0>        -0.0151
      3 N1          0.2669   -1.4549    0.7968 N.4       1 <0>        -0.5059
      4 C3          0.0057   -2.8995    0.7437 C.3       1 <0>         0.0415
      5 H1         -1.0700   -3.0749    0.7559 H         1 <0>         0.1664
      6 C4          0.6470   -3.5786    1.9555 C.3       1 <0>        -0.1794
      7 C5          0.3749   -5.0832    1.9002 C.3       1 <0>         0.0425
      8 H2         -0.7008   -5.2587    1.9124 H         1 <0>         0.1709
      9 C6          0.9716   -5.6625    0.6159 C.3       1 <0>         0.0302
     10 H3          2.0473   -5.4871    0.6037 H         1 <0>         0.1251
     11 C7          0.3303   -4.9834   -0.5959 C.3       1 <0>         0.0712
     12 H4         -0.7454   -5.1588   -0.5837 H         1 <0>         0.1018
     13 C8          0.6023   -3.4788   -0.5406 C.3       1 <0>         0.0742
     14 H5          1.6780   -3.3033   -0.5528 H         1 <0>         0.1120
     15 O1          0.0034   -2.8445   -1.6724 O.3       1 <0>        -0.3839
     16 C9          0.8604   -2.7605   -2.8127 C.3       1 <0>         0.2235
     17 H6          1.8230   -2.3452   -2.5142 H         1 <0>         0.1288
     18 C10         0.2191   -1.8555   -3.8679 C.3       1 <0>         0.0745
     19 H7          0.8904   -1.7584   -4.7211 H         1 <0>         0.1259
     20 C11        -1.1042   -2.4764   -4.3257 C.3       1 <0>         0.0538
     21 H8         -1.7936   -2.5280   -3.4830 H         1 <0>         0.1565
     22 C12        -0.8365   -3.8883   -4.8560 C.3       1 <0>         0.0735
     23 C13        -0.1544   -4.7148   -3.7627 C.3       1 <0>         0.0566
     24 O2          1.0539   -4.0660   -3.3606 O.3       1 <0>        -0.3254
     25 C14        -2.1611   -4.5482   -5.2444 C.3       1 <0>        -0.2016
     26 O3          0.0156   -3.8149   -6.0008 O.3       1 <0>        -0.5537
     27 N2         -1.6911   -1.6525   -5.3910 N.4       1 <0>        -0.5039
     28 C15        -2.0651   -0.3408   -4.8456 C.3       1 <0>        -0.0538
     29 O4         -0.0269   -0.5654   -3.3046 O.3       1 <0>        -0.5507
     30 O5          0.8875   -5.5244   -1.7954 O.3       1 <0>        -0.5037
     31 O6          0.7175   -7.0678    0.5642 O.3       1 <0>        -0.3964
     32 C16         1.7621   -7.8251   -0.0500 C.3       1 <0>         0.2248
     33 H9          2.0340   -7.3708   -1.0028 H         1 <0>         0.1512
     34 C17         1.2893   -9.2672   -0.2804 C.3       1 <0>         0.0032
     35 H10         2.1034   -9.8588   -0.6991 H         1 <0>         0.1833
     36 C18         0.8664   -9.8528    1.0712 C.3       1 <0>        -0.1058
     37 C19         1.9195   -9.5470    2.1010 C.2       1 <0>        -0.2147
     38 C20         2.8237   -8.6196    1.9266 C.2       1 <0>         0.0487
     39 O7          2.9036   -7.8593    0.8113 O.3       1 <0>        -0.2972
     40 C21         3.8287   -8.3853    3.0247 C.3       1 <0>         0.1094
     41 N3          5.1719   -8.7322    2.5414 N.3       1 <0>        -0.8420
     42 N4          0.1467   -9.2728   -1.2036 N.4       1 <0>        -0.6325
     43 N5          0.9907   -5.7353    3.0636 N.4       1 <0>        -0.6361
     44 H11         0.9381    0.7990    2.1003 H         1 <0>         0.0869
     45 H12        -0.5147    1.0979    1.1163 H         1 <0>         0.0875
     46 H13        -0.6357    1.0545    2.8916 H         1 <0>         0.1205
     47 H14        -0.0280   -1.3495    2.8742 H         1 <0>         0.1324
     48 H15        -1.4809   -1.0507    1.8902 H         1 <0>         0.1401
     49 H16        -0.0843   -1.0185   -0.0424 H         1 <0>         0.4441
     50 H17         1.7227   -3.4032    1.9433 H         1 <0>         0.1269
     51 H18         0.2219   -3.1660    2.8705 H         1 <0>         0.1435
     52 H19        -0.8215   -4.8045   -2.9053 H         1 <0>         0.0745
     53 H20         0.0771   -5.7076   -4.1487 H         1 <0>         0.1170
     54 H21        -2.6487   -3.9561   -6.0189 H         1 <0>         0.0773
     55 H22        -1.9697   -5.5528   -5.6216 H         1 <0>         0.0963
     56 H23        -2.8086   -4.6059   -4.3695 H         1 <0>         0.0843
     57 H24         0.2271   -4.6747   -6.3894 H         1 <0>         0.4148
     58 H25        -1.0164   -1.5291   -6.1310 H         1 <0>         0.4401
     59 H26        -2.6446    0.2092   -5.5872 H         1 <0>         0.1305
     60 H27        -2.6644   -0.4789   -3.9457 H         1 <0>         0.1184
     61 H28        -1.1639    0.2207   -4.5994 H         1 <0>         0.1466
     62 H29         0.7689   -0.1156   -2.9893 H         1 <0>         0.4048
     63 H30         0.6905   -6.4610   -1.9331 H         1 <0>         0.3679
     64 H31        -0.0815   -9.4107    1.3782 H         1 <0>         0.1076
     65 H32         0.7508  -10.9328    0.9792 H         1 <0>         0.1271
     66 H33         1.9285  -10.1151    3.0195 H         1 <0>         0.1597
     67 H34         3.8081   -7.3357    3.3183 H         1 <0>         0.0317
     68 H35         3.5798   -9.0079    3.8841 H         1 <0>         0.1126
     69 H36         5.4006   -8.2142    1.7063 H         1 <0>         0.3501
     70 H37         0.4243   -8.8673   -2.0848 H         1 <0>         0.4375
     71 H38        -0.1609  -10.2222   -1.3523 H         1 <0>         0.4583
     72 H39         0.5972   -5.3533    3.9106 H         1 <0>         0.4533
     73 H40         0.8112   -6.7275    3.0272 H         1 <0>         0.4489
     74 H41         1.9864   -5.5729    3.0523 H         1 <0>         0.4395
     75 H42         1.2606   -1.2952    0.8684 H         1 <0>         0.4313
     76 H43        -2.5119   -2.1110   -5.7571 H         1 <0>         0.4318
     77 H44         5.8643   -8.5835    3.2601 H         1 <0>         0.3685
     78 H45        -0.6082   -8.7328   -0.8078 H         1 <0>         0.4354
@<TRIPOS>BOND
     1    1    2 1
     2    1   44 1
     3    1   45 1
     4    1   46 1
     5    2    3 1
     6    2   47 1
     7    2   48 1
     8    3    4 1
     9    3   49 1
    10    3   75 1
    11    4    5 1
    12    4   13 1
    13    4    6 1
    14    6    7 1
    15    6   50 1
    16    6   51 1
    17    7    8 1
    18    7    9 1
    19    7   43 1
    20    9   10 1
    21    9   11 1
    22    9   31 1
    23   11   12 1
    24   11   13 1
    25   11   30 1
    26   13   14 1
    27   13   15 1
    28   15   16 1
    29   16   17 1
    30   16   24 1
    31   16   18 1
    32   18   19 1
    33   18   20 1
    34   18   29 1
    35   20   21 1
    36   20   22 1
    37   20   27 1
    38   22   23 1
    39   22   25 1
    40   22   26 1
    41   23   24 1
    42   23   52 1
    43   23   53 1
    44   25   54 1
    45   25   55 1
    46   25   56 1
    47   26   57 1
    48   27   28 1
    49   27   58 1
    50   27   76 1
    51   28   59 1
    52   28   60 1
    53   28   61 1
    54   29   62 1
    55   30   63 1
    56   31   32 1
    57   32   33 1
    58   32   39 1
    59   32   34 1
    60   34   35 1
    61   34   36 1
    62   34   42 1
    63   36   37 1
    64   36   64 1
    65   36   65 1
    66   37   38 2
    67   37   66 1
    68   38   39 1
    69   38   40 1
    70   40   41 1
    71   40   67 1
    72   40   68 1
    73   41   69 1
    74   41   77 1
    75   42   70 1
    76   42   71 1
    77   42   78 1
    78   43   72 1
    79   43   73 1
    80   43   74 1
@<TRIPOS>MOLECULE
ZINC08766756
   31    32     0     0     0
SMALL
USER_CHARGES

@<TRIPOS>ATOM
      1 C1         -0.0187    1.5258    0.0104 C.3       1 <0>        -0.1572
      2 C2          0.0021   -0.0041    0.0020 C.3       1 <0>        -0.0979
      3 C3          0.7421   -0.5109    1.2415 C.3       1 <0>        -0.1268
      4 C4         -0.0785   -0.1456    2.4637 C.2       1 <0>         0.5363
      5 N1          0.4991    0.6139    3.3975 N.2       1 <0>        -0.6776
      6 C5          1.7320    1.0463    3.2928 C.2       1 <0>         0.6404
      7 O1          2.2129    1.8049    4.2942 O.3       1 <0>        -0.6546
      8 N2          2.5612    0.7847    2.2476 N.am      1 <0>        -0.5765
      9 C6          2.1591    0.0309    1.2004 C.2       1 <0>         0.5487
     10 O2          2.8986   -0.2026    0.2686 O.2       1 <0>        -0.5139
     11 C7          3.9200    1.3322    2.2564 C.3       1 <0>         0.0759
     12 O3         -1.2237   -0.5318    2.5890 O.2       1 <0>        -0.5298
     13 C8          0.8120   -2.0141    1.1604 C.ar      1 <0>        -0.0423
     14 C9          0.2582   -2.6744    0.0796 C.ar      1 <0>        -0.1056
     15 C10         0.3223   -4.0533    0.0052 C.ar      1 <0>        -0.1205
     16 C11         0.9406   -4.7718    1.0114 C.ar      1 <0>        -0.1264
     17 C12         1.4952   -4.1114    2.0918 C.ar      1 <0>        -0.1157
     18 C13         1.4348   -2.7322    2.1640 C.ar      1 <0>        -0.1108
     19 H1          1.0039    1.9031    0.0027 H         1 <0>         0.0494
     20 H2         -0.5459    1.8868   -0.8726 H         1 <0>         0.0619
     21 H3         -0.5289    1.8773    0.9072 H         1 <0>         0.0613
     22 H4         -1.0205   -0.3814    0.0098 H         1 <0>         0.0855
     23 H5          0.5123   -0.3556   -0.8948 H         1 <0>         0.0758
     24 H6          4.0729    1.9101    3.1679 H         1 <0>         0.1006
     25 H7          4.6410    0.5157    2.2187 H         1 <0>         0.0575
     26 H8          4.0570    1.9783    1.3893 H         1 <0>         0.0577
     27 H9         -0.2249   -2.1131   -0.7065 H         1 <0>         0.1283
     28 H10        -0.1110   -4.5693   -0.8389 H         1 <0>         0.1212
     29 H11         0.9900   -5.8491    0.9536 H         1 <0>         0.1192
     30 H12         1.9779   -4.6727    2.8780 H         1 <0>         0.1209
     31 H13         1.8714   -2.2160    3.0063 H         1 <0>         0.1150
@<TRIPOS>BOND
     1    1    2 1
     2    1   19 1
     3    1   20 1
     4    1   21 1
     5    2    3 1
     6    2   22 1
     7    2   23 1
     8    3    9 1
     9    3    4 1
    10    3   13 1
    11    4    5 1
    12    4   12 2
    13    5    6 2
    14    6    7 1
    15    6    8 1
    16    8    9 am
    17    8   11 1
    18    9   10 2
    19   11   24 1
    20   11   25 1
    21   11   26 1
    22   13   18 ar
    23   13   14 ar
    24   14   15 ar
    25   14   27 1
    26   15   16 ar
    27   15   28 1
    28   16   17 ar
    29   16   29 1
    30   17   18 ar
    31   17   30 1
    32   18   31 1
@<TRIPOS>MOLECULE
ZINC08766760
   31    32     0     0     0
SMALL
USER_CHARGES

@<TRIPOS>ATOM
      1 C1         -0.0187    1.5258    0.0104 C.3       1 <0>        -0.1572
      2 C2          0.0021   -0.0041    0.0020 C.3       1 <0>        -0.0979
      3 C3          0.7421   -0.5109    1.2415 C.3       1 <0>        -0.1268
      4 C4          2.1990   -0.1073    1.1197 C.2       1 <0>         0.5363
      5 N1          2.7183    0.6512    2.0879 N.2       1 <0>        -0.6776
      6 C5          2.0203    1.0511    3.1227 C.2       1 <0>         0.6404
      7 O1          2.6452    1.8130    4.0384 O.3       1 <0>        -0.6546
      8 N2          0.7115    0.7536    3.3392 N.am      1 <0>        -0.5765
      9 C6          0.0080   -0.0052    2.4698 C.2       1 <0>         0.5487
     10 O2         -1.1592   -0.2702    2.6626 O.2       1 <0>        -0.5139
     11 C7          0.0494    1.2664    4.5412 C.3       1 <0>         0.0759
     12 O3          2.8715   -0.4630    0.1723 O.2       1 <0>        -0.5298
     13 C8          0.6748   -2.0164    1.2414 C.ar      1 <0>        -0.0424
     14 C9          0.0225   -2.6790    0.2184 C.ar      1 <0>        -0.1055
     15 C10        -0.0392   -4.0600    0.2183 C.ar      1 <0>        -0.1205
     16 C11         0.5517   -4.7784    1.2408 C.ar      1 <0>        -0.1264
     17 C12         1.2047   -4.1158    2.2633 C.ar      1 <0>        -0.1158
     18 C13         1.2702   -2.7350    2.2612 C.ar      1 <0>        -0.1108
     19 H1          1.0039    1.9031    0.0027 H         1 <0>         0.0613
     20 H2         -0.5459    1.8868   -0.8726 H         1 <0>         0.0619
     21 H3         -0.5289    1.8773    0.9072 H         1 <0>         0.0494
     22 H4         -1.0205   -0.3814    0.0098 H         1 <0>         0.0758
     23 H5          0.5123   -0.3556   -0.8948 H         1 <0>         0.0855
     24 H6          0.7590    1.8531    5.1246 H         1 <0>         0.1007
     25 H7         -0.7918    1.8963    4.2520 H         1 <0>         0.0577
     26 H8         -0.3116    0.4312    5.1414 H         1 <0>         0.0575
     27 H9         -0.4391   -2.1177   -0.5805 H         1 <0>         0.1283
     28 H10        -0.5494   -4.5776   -0.5806 H         1 <0>         0.1211
     29 H11         0.5029   -5.8573    1.2411 H         1 <0>         0.1192
     30 H12         1.6661   -4.6770    3.0624 H         1 <0>         0.1209
     31 H13         1.7836   -2.2175    3.0581 H         1 <0>         0.1150
@<TRIPOS>BOND
     1    1    2 1
     2    1   19 1
     3    1   20 1
     4    1   21 1
     5    2    3 1
     6    2   22 1
     7    2   23 1
     8    3    9 1
     9    3    4 1
    10    3   13 1
    11    4    5 1
    12    4   12 2
    13    5    6 2
    14    6    7 1
    15    6    8 1
    16    8    9 am
    17    8   11 1
    18    9   10 2
    19   11   24 1
    20   11   25 1
    21   11   26 1
    22   13   18 ar
    23   13   14 ar
    24   14   15 ar
    25   14   27 1
    26   15   16 ar
    27   15   28 1
    28   16   17 ar
    29   16   29 1
    30   17   18 ar
    31   17   30 1
    32   18   31 1
@<TRIPOS>MOLECULE
ZINC13523524
   49    51     0     0     0
SMALL
USER_CHARGES

@<TRIPOS>ATOM
      1 C1         -0.0165    1.3646    0.0095 C.2       1 <0>         0.0547
      2 C2          1.2671    1.7717   -0.0005 C.2       1 <0>         0.0417
      3 N1          2.0482    0.6814   -0.0138 N.pl3     1 <0>        -0.4757
      4 C3          1.2973   -0.3859   -0.0124 C.cat     1 <0>         0.3040
      5 N2          0.0021   -0.0041    0.0020 N.pl3     1 <0>        -0.4965
      6 H1         -0.7708   -0.5902    0.0065 H         1 <0>         0.4674
      7 C4          1.7427    3.2017    0.0026 C.3       1 <0>        -0.0786
      8 C5          1.7980    3.7176    1.4420 C.3       1 <0>         0.1358
      9 H2          0.8250    3.5821    1.9142 H         1 <0>         0.1273
     10 C6          2.1547    5.1818    1.4374 C.2       1 <0>         0.5347
     11 O1          3.1572    5.5635    2.0032 O.2       1 <0>        -0.5020
     12 N3          1.3595    6.0671    0.8046 N.am      1 <0>        -0.5977
     13 C7          0.1139    5.7427    0.0860 C.3       1 <0>         0.0888
     14 C8         -0.7047    7.0578    0.0975 C.3       1 <0>        -0.1355
     15 C9          0.4120    8.1212   -0.0748 C.3       1 <0>        -0.1268
     16 C10         1.5874    7.5172    0.7220 C.3       1 <0>         0.1175
     17 H3          2.5253    7.7161    0.2033 H         1 <0>         0.1105
     18 C11         1.6289    8.1092    2.1072 C.2       1 <0>         0.5099
     19 O2          1.4830    7.3951    3.0765 O.2       1 <0>        -0.5244
     20 N4          1.8283    9.4323    2.2689 N.am      1 <0>        -0.8516
     21 N5          2.8121    2.9703    2.1899 N.am      1 <0>        -0.7096
     22 C12         2.4954    1.7915    2.7614 C.2       1 <0>         0.5007
     23 O3          1.3710    1.3494    2.6565 O.2       1 <0>        -0.5261
     24 C13         3.5386    1.0228    3.5308 C.3       1 <0>         0.1111
     25 H4          4.1423    1.7039    4.1306 H         1 <0>         0.1248
     26 C14         4.4377    0.2243    2.5610 C.3       1 <0>        -0.1225
     27 C15         3.7301   -1.1503    2.5346 C.3       1 <0>        -0.1578
     28 C16         2.9870   -1.2104    3.8509 C.2       1 <0>         0.5234
     29 O4          2.5365   -2.2204    4.3487 O.2       1 <0>        -0.5104
     30 N6          2.8991    0.0198    4.3904 N.am      1 <0>        -0.7079
     31 H5         -0.8922    1.9965    0.0253 H         1 <0>         0.2234
     32 H6          1.6529   -1.4057   -0.0218 H         1 <0>         0.2615
     33 H7          2.7369    3.2550   -0.4409 H         1 <0>         0.1082
     34 H8          1.0529    3.8153   -0.5770 H         1 <0>         0.1307
     35 H9          0.3341    5.4419   -0.9383 H         1 <0>         0.0835
     36 H10        -0.4292    4.9532    0.6056 H         1 <0>         0.0818
     37 H11        -1.4058    7.0889   -0.7364 H         1 <0>         0.0983
     38 H12        -1.2237    7.1866    1.0473 H         1 <0>         0.0834
     39 H13         0.6739    8.2384   -1.1263 H         1 <0>         0.0972
     40 H14         0.1064    9.0746    0.3563 H         1 <0>         0.0937
     41 H15         1.9450   10.0035    1.4936 H         1 <0>         0.4031
     42 H16         1.8550    9.8134    3.1605 H         1 <0>         0.4078
     43 H17         3.7115    3.3239    2.2738 H         1 <0>         0.4198
     44 H18         4.4435    0.6792    1.5705 H         1 <0>         0.0823
     45 H19         5.4507    0.1341    2.9531 H         1 <0>         0.1141
     46 H20         3.0317   -1.2038    1.6994 H         1 <0>         0.0847
     47 H21         4.4625   -1.9552    2.4728 H         1 <0>         0.1198
     48 H22         2.4696    0.2185    5.2372 H         1 <0>         0.4216
     49 H23         3.0181    0.6856   -0.0234 H         1 <0>         0.4561
@<TRIPOS>BOND
     1    1    5 1
     2    1    2 2
     3    1   31 1
     4    2    3 1
     5    2    7 1
     6    3    4 2
     7    3   49 1
     8    4    5 1
     9    4   32 1
    10    5    6 1
    11    7    8 1
    12    7   33 1
    13    7   34 1
    14    8    9 1
    15    8   10 1
    16    8   21 1
    17   10   11 2
    18   10   12 am
    19   12   16 1
    20   12   13 1
    21   13   14 1
    22   13   35 1
    23   13   36 1
    24   14   15 1
    25   14   37 1
    26   14   38 1
    27   15   16 1
    28   15   39 1
    29   15   40 1
    30   16   17 1
    31   16   18 1
    32   18   19 2
    33   18   20 am
    34   20   41 1
    35   20   42 1
    36   21   22 am
    37   21   43 1
    38   22   23 2
    39   22   24 1
    40   24   25 1
    41   24   30 1
    42   24   26 1
    43   26   27 1
    44   26   44 1
    45   26   45 1
    46   27   28 1
    47   27   46 1
    48   27   47 1
    49   28   29 2
    50   28   30 am
    51   30   48 1
@<TRIPOS>MOLECULE
ZINC26573040
   66    69     0     0     0
SMALL
USER_CHARGES
N,N'-diallyl-6-[4-[bis(4-fluorophenyl)methyl]piperazin-1-yl]-1,3,5-triazine-2,4-diamine
@<TRIPOS>ATOM
      1 C1         -0.7127    4.7488    0.8041 C.2       1 <0>        -0.1211
      2 C2         -0.2224    3.8144    1.5803 C.2       1 <0>        -0.2130
      3 C3         -0.6064    2.3739    1.3604 C.3       1 <0>         0.1210
      4 N1          0.6041    1.5659    1.1931 N.pl3     1 <0>        -0.6554
      5 C4          0.5021    0.2065    0.9775 C.ar      1 <0>         0.6898
      6 N2         -0.6942   -0.3714    0.9327 N.ar      1 <0>        -0.6487
      7 C5         -0.7926   -1.6799    0.7196 C.ar      1 <0>         0.6923
      8 N3          0.3056   -2.4122    0.5622 N.ar      1 <0>        -0.6229
      9 C6          1.5021   -1.8351    0.6125 C.ar      1 <0>         0.6372
     10 N4          1.6004   -0.5258    0.8202 N.ar      1 <0>        -0.5965
     11 N5          2.6423   -2.5953    0.4487 N.pl3     1 <0>        -0.4497
     12 C7          3.4659   -2.0787   -0.6532 C.3       1 <0>         0.0368
     13 C8          4.7551   -2.8978   -0.7505 C.3       1 <0>        -0.0040
     14 N6          4.4187   -4.3120   -0.9665 N.4       1 <0>        -0.4064
     15 C9          3.5951   -4.8287    0.1355 C.3       1 <0>        -0.0071
     16 C10         2.3059   -4.0095    0.2328 C.3       1 <0>         0.0358
     17 C11         5.6323   -5.1211   -1.1408 C.3       1 <0>         0.1468
     18 C12         5.2475   -6.5575   -1.3857 C.ar      1 <0>        -0.1530
     19 C13         4.2151   -6.8574   -2.2548 C.ar      1 <0>        -0.0916
     20 C14         3.8646   -8.1744   -2.4838 C.ar      1 <0>        -0.1398
     21 C15         4.5408   -9.1932   -1.8344 C.ar      1 <0>         0.1376
     22 C16         5.5712   -8.8914   -0.9601 C.ar      1 <0>        -0.1393
     23 C17         5.9235   -7.5739   -0.7367 C.ar      1 <0>        -0.0515
     24 F1          4.1959  -10.4809   -2.0539 F         1 <0>        -0.1195
     25 C18         6.4164   -4.6033   -2.3190 C.ar      1 <0>        -0.1538
     26 C19         5.7645   -4.2819   -3.4950 C.ar      1 <0>        -0.0912
     27 C20         6.4819   -3.8024   -4.5745 C.ar      1 <0>        -0.1405
     28 C21         7.8553   -3.6538   -4.4814 C.ar      1 <0>         0.1380
     29 C22         8.5078   -3.9809   -3.3048 C.ar      1 <0>        -0.1395
     30 C23         7.7876   -4.4553   -2.2248 C.ar      1 <0>        -0.0510
     31 F2          8.5582   -3.1895   -5.5376 F         1 <0>        -0.1194
     32 N7         -2.0348   -2.2790    0.6674 N.pl3     1 <0>        -0.6569
     33 C24        -3.2452   -1.4720    0.8408 C.3       1 <0>         0.1208
     34 C25        -4.4591   -2.3593    0.7411 C.2       1 <0>        -0.2142
     35 C26        -5.3389   -2.3772    1.7115 C.2       1 <0>        -0.1198
     36 H1         -0.4324    5.8003    0.9646 H         1 <0>         0.1246
     37 H2         -1.4047    4.4819   -0.0082 H         1 <0>         0.1082
     38 H3          0.4696    4.0813    2.3926 H         1 <0>         0.1349
     39 H4         -1.1737    2.0089    2.2293 H         1 <0>         0.0951
     40 H5         -1.2284    2.2941    0.4566 H         1 <0>         0.0902
     41 H6          1.5943    2.0427    1.2393 H         1 <0>         0.4805
     42 H7          2.9072   -2.1590   -1.5974 H         1 <0>         0.0848
     43 H8          3.7139   -1.0241   -0.4624 H         1 <0>         0.1513
     44 H9          5.3599   -2.5309   -1.5929 H         1 <0>         0.1540
     45 H10         5.3266   -2.7944    0.1836 H         1 <0>         0.1503
     46 H11         3.3471   -5.8832   -0.0554 H         1 <0>         0.1534
     47 H12         4.1538   -4.7485    1.0797 H         1 <0>         0.1474
     48 H13         1.7007   -4.3752    1.0754 H         1 <0>         0.1455
     49 H14         1.7339   -4.1119   -0.7012 H         1 <0>         0.0926
     50 H15         6.2315   -5.0405   -0.2219 H         1 <0>         0.1541
     51 H16         3.6851   -6.0624   -2.7581 H         1 <0>         0.1247
     52 H17         3.0607   -8.4087   -3.1660 H         1 <0>         0.1501
     53 H18         6.0996   -9.6853   -0.4532 H         1 <0>         0.1533
     54 H19         6.7274   -7.3382   -0.0551 H         1 <0>         0.1463
     55 H20         4.6937   -4.4018   -3.5688 H         1 <0>         0.1247
     56 H21         5.9719   -3.5475   -5.4918 H         1 <0>         0.1499
     57 H22         9.5790   -3.8651   -3.2309 H         1 <0>         0.1535
     58 H23         8.2963   -4.7102   -1.3069 H         1 <0>         0.1465
     59 H24        -2.1161   -3.3625    0.4956 H         1 <0>         0.4786
     60 H25        -3.2249   -0.9881    1.8284 H         1 <0>         0.0906
     61 H26        -3.2882   -0.7023    0.0562 H         1 <0>         0.0948
     62 H27        -4.6064   -2.9920   -0.1466 H         1 <0>         0.1338
     63 H28        -6.2250   -3.0249    1.6387 H         1 <0>         0.1246
     64 H29        -5.1916   -1.7445    2.5992 H         1 <0>         0.1089
     65 H30        -1.6026    0.2331    1.0720 H         1 <0>         0.4725
     66 H31         3.8302   -4.3836   -1.8931 H         1 <0>         0.4304
@<TRIPOS>BOND
     1    1    2 2
     2    1   36 1
     3    1   37 1
     4    2    3 1
     5    2   38 1
     6    3    4 1
     7    3   39 1
     8    3   40 1
     9    4    5 1
    10    4   41 1
    11    5   10 ar
    12    5    6 ar
    13    6    7 ar
    14    6   65 1
    15    7    8 ar
    16    7   32 1
    17    8    9 ar
    18    9   10 ar
    19    9   11 1
    20   11   16 1
    21   11   12 1
    22   12   13 1
    23   12   42 1
    24   12   43 1
    25   13   14 1
    26   13   44 1
    27   13   45 1
    28   14   15 1
    29   14   17 1
    30   14   66 1
    31   15   16 1
    32   15   46 1
    33   15   47 1
    34   16   48 1
    35   16   49 1
    36   17   18 1
    37   17   25 1
    38   17   50 1
    39   18   23 ar
    40   18   19 ar
    41   19   20 ar
    42   19   51 1
    43   20   21 ar
    44   20   52 1
    45   21   22 ar
    46   21   24 1
    47   22   23 ar
    48   22   53 1
    49   23   54 1
    50   25   30 ar
    51   25   26 ar
    52   26   27 ar
    53   26   55 1
    54   27   28 ar
    55   27   56 1
    56   28   29 ar
    57   28   31 1
    58   29   30 ar
    59   29   57 1
    60   30   58 1
    61   32   33 1
    62   32   59 1
    63   33   34 1
    64   33   60 1
    65   33   61 1
    66   34   35 2
    67   34   62 1
    68   35   63 1
    69   35   64 1
@<TRIPOS>MOLECULE
ZINC26573040
   64    67     0     0     0
SMALL
USER_CHARGES
N,N'-diallyl-6-[4-[bis(4-fluorophenyl)methyl]piperazin-1-yl]-1,3,5-triazine-2,4-diamine
@<TRIPOS>ATOM
      1 C1         -0.7127    4.7488    0.8041 C.2       1 <0>        -0.1639
      2 C2         -0.2224    3.8144    1.5803 C.2       1 <0>        -0.1831
      3 C3         -0.6064    2.3739    1.3604 C.3       1 <0>         0.1695
      4 N1          0.6041    1.5659    1.1931 N.pl3     1 <0>        -0.6951
      5 C4          0.5021    0.2065    0.9775 C.ar      1 <0>         0.6445
      6 N2         -0.6942   -0.3714    0.9327 N.ar      1 <0>        -0.6675
      7 C5         -0.7926   -1.6799    0.7196 C.ar      1 <0>         0.6450
      8 N3          0.3056   -2.4122    0.5622 N.ar      1 <0>        -0.6680
      9 C6          1.5021   -1.8351    0.6125 C.ar      1 <0>         0.5958
     10 N4          1.6004   -0.5258    0.8202 N.ar      1 <0>        -0.6497
     11 N5          2.6423   -2.5953    0.4487 N.pl3     1 <0>        -0.4574
     12 C7          3.4659   -2.0787   -0.6532 C.3       1 <0>         0.0745
     13 C8          4.7551   -2.8978   -0.7505 C.3       1 <0>         0.0552
     14 N6          4.4187   -4.3120   -0.9665 N.3       1 <0>        -0.5326
     15 C9          3.5951   -4.8287    0.1355 C.3       1 <0>         0.0518
     16 C10         2.3059   -4.0095    0.2328 C.3       1 <0>         0.0764
     17 C11         5.6323   -5.1211   -1.1408 C.3       1 <0>         0.1711
     18 C12         5.2475   -6.5575   -1.3857 C.ar      1 <0>        -0.0899
     19 C13         4.2151   -6.8574   -2.2548 C.ar      1 <0>        -0.0611
     20 C14         3.8646   -8.1744   -2.4838 C.ar      1 <0>        -0.1559
     21 C15         4.5408   -9.1932   -1.8344 C.ar      1 <0>         0.1012
     22 C16         5.5712   -8.8914   -0.9601 C.ar      1 <0>        -0.1537
     23 C17         5.9235   -7.5739   -0.7367 C.ar      1 <0>        -0.0814
     24 F1          4.1959  -10.4809   -2.0539 F         1 <0>        -0.1396
     25 C18         6.4164   -4.6033   -2.3190 C.ar      1 <0>        -0.0897
     26 C19         5.7645   -4.2819   -3.4950 C.ar      1 <0>        -0.0610
     27 C20         6.4819   -3.8024   -4.5745 C.ar      1 <0>        -0.1564
     28 C21         7.8553   -3.6538   -4.4814 C.ar      1 <0>         0.1012
     29 C22         8.5078   -3.9809   -3.3048 C.ar      1 <0>        -0.1537
     30 C23         7.7876   -4.4553   -2.2248 C.ar      1 <0>        -0.0813
     31 F2          8.5582   -3.1895   -5.5376 F         1 <0>        -0.1396
     32 N7         -2.0348   -2.2790    0.6674 N.pl3     1 <0>        -0.6955
     33 C24        -3.2452   -1.4720    0.8408 C.3       1 <0>         0.1693
     34 C25        -4.4591   -2.3593    0.7411 C.2       1 <0>        -0.1834
     35 C26        -5.3389   -2.3772    1.7115 C.2       1 <0>        -0.1635
     36 H1         -0.4324    5.8003    0.9646 H         1 <0>         0.1069
     37 H2         -1.4047    4.4819   -0.0082 H         1 <0>         0.1023
     38 H3          0.4696    4.0813    2.3926 H         1 <0>         0.1185
     39 H4         -1.1737    2.0089    2.2293 H         1 <0>         0.0737
     40 H5         -1.2284    2.2941    0.4566 H         1 <0>         0.0695
     41 H6          1.5943    2.0427    1.2393 H         1 <0>         0.4405
     42 H7          2.9072   -2.1590   -1.5974 H         1 <0>         0.0541
     43 H8          3.7139   -1.0241   -0.4624 H         1 <0>         0.1015
     44 H9          5.3599   -2.5309   -1.5929 H         1 <0>         0.0921
     45 H10         5.3266   -2.7944    0.1836 H         1 <0>         0.0508
     46 H11         3.3471   -5.8832   -0.0554 H         1 <0>         0.0922
     47 H12         4.1538   -4.7485    1.0797 H         1 <0>         0.0472
     48 H13         1.7007   -4.3752    1.0754 H         1 <0>         0.0941
     49 H14         1.7339   -4.1119   -0.7012 H         1 <0>         0.0648
     50 H15         6.2315   -5.0405   -0.2219 H         1 <0>         0.0652
     51 H16         3.6851   -6.0624   -2.7581 H         1 <0>         0.1395
     52 H17         3.0607   -8.4087   -3.1660 H         1 <0>         0.1357
     53 H18         6.0996   -9.6853   -0.4532 H         1 <0>         0.1358
     54 H19         6.7274   -7.3382   -0.0551 H         1 <0>         0.1313
     55 H20         4.6937   -4.4018   -3.5688 H         1 <0>         0.1391
     56 H21         5.9719   -3.5475   -5.4918 H         1 <0>         0.1354
     57 H22         9.5790   -3.8651   -3.2309 H         1 <0>         0.1359
     58 H23         8.2963   -4.7102   -1.3069 H         1 <0>         0.1314
     59 H24        -2.1161   -3.3625    0.4956 H         1 <0>         0.4397
     60 H25        -3.2249   -0.9881    1.8284 H         1 <0>         0.0697
     61 H26        -3.2882   -0.7023    0.0562 H         1 <0>         0.0734
     62 H27        -4.6064   -2.9920   -0.1466 H         1 <0>         0.1182
     63 H28        -6.2250   -3.0249    1.6387 H         1 <0>         0.1069
     64 H29        -5.1916   -1.7445    2.5992 H         1 <0>         0.1024
@<TRIPOS>BOND
     1    1    2 2
     2    1   36 1
     3    1   37 1
     4    2    3 1
     5    2   38 1
     6    3    4 1
     7    3   39 1
     8    3   40 1
     9    4    5 1
    10    4   41 1
    11    5   10 ar
    12    5    6 ar
    13    6    7 ar
    14    7    8 ar
    15    7   32 1
    16    8    9 ar
    17    9   10 ar
    18    9   11 1
    19   11   16 1
    20   11   12 1
    21   12   13 1
    22   12   42 1
    23   12   43 1
    24   13   14 1
    25   13   44 1
    26   13   45 1
    27   14   15 1
    28   14   17 1
    29   15   16 1
    30   15   46 1
    31   15   47 1
    32   16   48 1
    33   16   49 1
    34   17   18 1
    35   17   25 1
    36   17   50 1
    37   18   23 ar
    38   18   19 ar
    39   19   20 ar
    40   19   51 1
    41   20   21 ar
    42   20   52 1
    43   21   22 ar
    44   21   24 1
    45   22   23 ar
    46   22   53 1
    47   23   54 1
    48   25   30 ar
    49   25   26 ar
    50   26   27 ar
    51   26   55 1
    52   27   28 ar
    53   27   56 1
    54   28   29 ar
    55   28   31 1
    56   29   30 ar
    57   29   57 1
    58   30   58 1
    59   32   33 1
    60   32   59 1
    61   33   34 1
    62   33   60 1
    63   33   61 1
    64   34   35 2
    65   34   62 1
    66   35   63 1
    67   35   64 1
@<TRIPOS>MOLECULE
ZINC53682936
   81    84     0     0     0
SMALL
USER_CHARGES

@<TRIPOS>ATOM
      1 C1         -1.0227    1.5637   -0.7856 C.3       1 <0>        -0.1848
      2 C2         -0.9539    0.0365   -0.7218 C.3       1 <0>         0.1811
      3 C3         -0.5392   -0.5006   -2.0656 C.ar      1 <0>        -0.0832
      4 C4         -0.7695    0.2302   -3.2104 C.ar      1 <0>        -0.1368
      5 C5         -0.4006   -0.2762   -4.4465 C.ar      1 <0>        -0.1063
      6 C6          0.1987   -1.5169   -4.5456 C.ar      1 <0>        -0.1545
      7 C7          0.4444   -2.2640   -3.4032 C.ar      1 <0>         0.1405
      8 C8          0.0806   -1.7502   -2.1508 C.ar      1 <0>        -0.0922
      9 C9          0.3669   -2.5019   -0.9199 C.2       1 <0>         0.3437
     10 C10         0.3097   -1.8517    0.3015 C.2       1 <0>        -0.4876
     11 C11         0.0555   -0.3808    0.3482 C.3       1 <0>         0.0294
     12 H1          0.9961    0.1126    0.1036 H         1 <0>         0.0581
     13 C12        -0.3720    0.1562    1.6965 C.3       1 <0>        -0.1009
     14 C13        -0.6912   -0.9195    2.7181 C.3       1 <0>        -0.0635
     15 H2         -0.8396   -0.4569    3.6938 H         1 <0>         0.0864
     16 C14        -1.9538   -1.6870    2.3255 C.3       1 <0>         0.0300
     17 H3         -1.8059   -2.1596    1.3545 H         1 <0>         0.1762
     18 C15        -2.2314   -2.7440    3.3632 C.2       1 <0>         0.3269
     19 O1         -3.4969   -3.1290    3.5940 O.3       1 <0>        -0.6067
     20 C16        -1.2163   -3.3148    4.0701 C.2       1 <0>        -0.3992
     21 C17        -1.5318   -4.3419    5.0812 C.2       1 <0>         0.5060
     22 N1         -0.5735   -4.8977    5.7659 N.2       1 <0>        -0.6572
     23 C18        -0.8742   -5.9934    6.6907 C.3       1 <0>         0.1589
     24 N2          0.3452   -6.3678    7.4194 N.4       1 <0>        -0.4915
     25 C19         0.0436   -7.4665    8.3467 C.3       1 <0>        -0.0024
     26 C20         1.3136   -7.8564    9.1056 C.3       1 <0>        -0.1505
     27 C21         0.9995   -9.0007   10.0714 C.3       1 <0>        -0.1283
     28 C22         2.2695   -9.3907   10.8303 C.3       1 <0>        -0.1294
     29 C23         1.9555  -10.5350   11.7961 C.3       1 <0>        -0.0504
     30 H4          1.5067  -11.3620   11.2459 H         1 <0>         0.1347
     31 C24         3.2288  -11.0012   12.4536 C.2       1 <0>         0.4849
     32 O2          3.5972  -10.4922   13.4984 O.co2     1 <0>        -0.6657
     33 O3          3.8906  -11.8875   11.9406 O.co2     1 <0>        -0.6324
     34 N3          1.0174  -10.0645   12.8241 N.4       1 <0>        -0.6156
     35 O4         -2.8164   -4.7063    5.2970 O.3       1 <0>        -0.4730
     36 C25         0.1335   -2.9467    3.8578 C.2       1 <0>         0.4095
     37 O5          1.0138   -3.4638    4.5146 O.2       1 <0>        -0.4748
     38 C26         0.4728   -1.9198    2.8020 C.3       1 <0>         0.0644
     39 C27         0.5412   -2.6100    1.4551 C.2       1 <0>         0.3698
     40 O6          0.7923   -3.7972    1.3777 O.2       1 <0>        -0.4851
     41 O7          1.6980   -1.2574    3.1215 O.3       1 <0>        -0.5288
     42 N4         -3.0899   -0.7587    2.2519 N.4       1 <0>        -0.3545
     43 C28        -4.2609   -1.4600    1.7088 C.3       1 <0>        -0.0560
     44 C29        -3.4001   -0.2568    3.5972 C.3       1 <0>        -0.0610
     45 O8          0.6822   -3.8141   -0.9799 O.3       1 <0>        -0.5830
     46 O9          1.0320   -3.4833   -3.4972 O.3       1 <0>        -0.4723
     47 O10        -2.2423   -0.4818   -0.3851 O.3       1 <0>        -0.5681
     48 H5         -0.0395    1.9615   -1.0370 H         1 <0>         0.0741
     49 H6         -1.7418    1.8634   -1.5479 H         1 <0>         0.0630
     50 H7         -1.3358    1.9540    0.1828 H         1 <0>         0.0649
     51 H8         -1.2392    1.2004   -3.1444 H         1 <0>         0.1240
     52 H9         -0.5834    0.3034   -5.3392 H         1 <0>         0.1226
     53 H10         0.4761   -1.9059   -5.5142 H         1 <0>         0.1259
     54 H11         0.4286    0.7823    2.0904 H         1 <0>         0.0845
     55 H12        -1.2573    0.7769    1.5580 H         1 <0>         0.0506
     56 H13        -1.6368   -5.6713    7.3999 H         1 <0>         0.0927
     57 H14        -1.2402   -6.8528    6.1290 H         1 <0>         0.1037
     58 H15         1.0511   -6.6659    6.7629 H         1 <0>         0.4333
     59 H16        -0.7190   -7.1444    9.0558 H         1 <0>         0.1246
     60 H17        -0.3224   -8.3259    7.7850 H         1 <0>         0.1287
     61 H18         2.0762   -8.1785    8.3964 H         1 <0>         0.0970
     62 H19         1.6796   -6.9970    9.6673 H         1 <0>         0.0917
     63 H20         0.2370   -8.6787   10.7806 H         1 <0>         0.0640
     64 H21         0.6336   -9.8602    9.5097 H         1 <0>         0.0865
     65 H22         3.0321   -9.7127   10.1212 H         1 <0>         0.1114
     66 H23         2.6355   -8.5312   11.3920 H         1 <0>         0.0887
     67 H24         1.4329   -9.2990   13.3335 H         1 <0>         0.4338
     68 H25         0.1649   -9.7523   12.3840 H         1 <0>         0.4103
     69 H26        -2.9181   -5.4390    5.9197 H         1 <0>         0.3677
     70 H27         2.4602   -1.8492    3.1850 H         1 <0>         0.3888
     71 H28        -3.9740   -2.0025    0.8080 H         1 <0>         0.1146
     72 H29        -4.6401   -2.1626    2.4508 H         1 <0>         0.1555
     73 H30        -5.0375   -0.7352    1.4646 H         1 <0>         0.0995
     74 H31        -2.5645    0.3389    3.9644 H         1 <0>         0.1092
     75 H32        -4.2969    0.3614    3.5566 H         1 <0>         0.1121
     76 H33        -3.5692   -1.0985    4.2689 H         1 <0>         0.1350
     77 H34         1.9975   -3.4594   -3.4487 H         1 <0>         0.3872
     78 H35        -2.9502   -0.1902   -0.9758 H         1 <0>         0.3727
     79 H36         0.8103  -10.8192   13.4611 H         1 <0>         0.4335
     80 H37         0.6840   -5.5722    7.9393 H         1 <0>         0.4270
     81 H38        -2.8529    0.0159    1.6504 H         1 <0>         0.4168
@<TRIPOS>BOND
     1    1    2 1
     2    1   48 1
     3    1   49 1
     4    1   50 1
     5    2   11 1
     6    2    3 1
     7    2   47 1
     8    3    8 ar
     9    3    4 ar
    10    4    5 ar
    11    4   51 1
    12    5    6 ar
    13    5   52 1
    14    6    7 ar
    15    6   53 1
    16    7    8 ar
    17    7   46 1
    18    8    9 1
    19    9   10 2
    20    9   45 1
    21   10   39 1
    22   10   11 1
    23   11   12 1
    24   11   13 1
    25   13   14 1
    26   13   54 1
    27   13   55 1
    28   14   15 1
    29   14   38 1
    30   14   16 1
    31   16   17 1
    32   16   18 1
    33   16   42 1
    34   18   19 1
    35   18   20 2
    36   20   21 1
    37   20   36 1
    38   21   22 2
    39   21   35 1
    40   22   23 1
    41   23   24 1
    42   23   56 1
    43   23   57 1
    44   24   25 1
    45   24   58 1
    46   24   80 1
    47   25   26 1
    48   25   59 1
    49   25   60 1
    50   26   27 1
    51   26   61 1
    52   26   62 1
    53   27   28 1
    54   27   63 1
    55   27   64 1
    56   28   29 1
    57   28   65 1
    58   28   66 1
    59   29   30 1
    60   29   31 1
    61   29   34 1
    62   31   32 2
    63   31   33 1
    64   34   67 1
    65   34   68 1
    66   34   79 1
    67   35   69 1
    68   36   37 2
    69   36   38 1
    70   38   39 1
    71   38   41 1
    72   39   40 2
    73   41   70 1
    74   42   43 1
    75   42   44 1
    76   42   81 1
    77   43   71 1
    78   43   72 1
    79   43   73 1
    80   44   74 1
    81   44   75 1
    82   44   76 1
    83   46   77 1
    84   47   78 1
@<TRIPOS>MOLECULE
ZINC18099446
   23    23     0     0     0
SMALL
USER_CHARGES

@<TRIPOS>ATOM
      1 C1         -0.2267    1.6972   -0.1344 C.3       1 <0>        -0.0061
      2 N1         -0.1147    0.2329   -0.1694 N.3       1 <0>        -0.3108
      3 C2          0.7605   -0.2539    0.9052 C.3       1 <0>        -0.0052
      4 N2         -1.3464   -0.3540   -0.1014 N.pl3     1 <0>        -0.2365
      5 N3         -1.7510   -1.1171   -1.0595 N.2       1 <0>         0.0690
      6 C3         -2.9045   -1.7673   -0.9490 C.2       1 <0>         0.0524
      7 C4         -3.8981   -1.6429    0.1245 C.2       1 <0>         0.2644
      8 N4         -4.8749   -2.4841   -0.1971 N.pl3     1 <0>        -0.4937
      9 C5         -4.5701   -3.0890   -1.3362 C.2       1 <0>         0.2358
     10 N5         -3.4164   -2.6800   -1.8033 N.2       1 <0>        -0.3895
     11 C6         -3.8270   -0.7673    1.3114 C.2       1 <0>         0.3654
     12 O1         -3.3421   -1.2488    2.4791 O.3       1 <0>        -0.7312
     13 N6         -4.2305    0.4671    1.2344 N.2       1 <0>        -0.8036
     14 H1          0.7681    2.1391   -0.1900 H         1 <0>         0.1192
     15 H2         -0.8228    2.0364   -0.9817 H         1 <0>         0.0934
     16 H3         -0.7086    2.0027    0.7943 H         1 <0>         0.0595
     17 H4          0.3499    0.0422    1.8705 H         1 <0>         0.0606
     18 H5          0.8259   -1.3409    0.8562 H         1 <0>         0.0914
     19 H6          1.7552    0.1756    0.7863 H         1 <0>         0.1207
     20 H7         -1.9166   -0.1969    0.6674 H         1 <0>         0.4043
     21 H8         -5.1962   -3.8236   -1.8209 H         1 <0>         0.2465
     22 H9         -4.1838    1.0422    2.0141 H         1 <0>         0.3415
     23 H10        -5.6823   -2.6322    0.3197 H         1 <0>         0.4526
@<TRIPOS>BOND
     1    1    2 1
     2    1   14 1
     3    1   15 1
     4    1   16 1
     5    2    3 1
     6    2    4 1
     7    3   17 1
     8    3   18 1
     9    3   19 1
    10    4    5 1
    11    4   20 1
    12    5    6 2
    13    6   10 1
    14    6    7 1
    15    7    8 2
    16    7   11 1
    17    8    9 1
    18    8   23 1
    19    9   10 2
    20    9   21 1
    21   11   12 1
    22   11   13 2
    23   13   22 1
@<TRIPOS>MOLECULE
ZINC00002094
   35    36     0     0     0
SMALL
USER_CHARGES

@<TRIPOS>ATOM
      1 C1         -0.0173    1.4248    0.0099 C.3       1 <0>         0.0222
      2 O1          0.0021   -0.0041    0.0020 O.3       1 <0>        -0.3073
      3 C2         -1.2023   -0.6385    0.0101 C.ar      1 <0>        -0.0613
      4 C3         -1.8277   -0.9738    1.2123 C.ar      1 <0>         0.4436
      5 N1         -3.0047   -1.5931    1.1755 N.ar      1 <0>        -0.5665
      6 C4         -3.5775   -1.8887    0.0262 C.ar      1 <0>         0.3794
      7 N2         -3.0192   -1.5895   -1.1290 N.ar      1 <0>        -0.5804
      8 C5         -1.8460   -0.9652   -1.1801 C.ar      1 <0>         0.3768
      9 O2         -1.2825   -0.6560   -2.3747 O.3       1 <0>        -0.2884
     10 C6         -2.0076   -1.0257   -3.5493 C.3       1 <0>         0.0342
     11 N3         -1.2304   -0.6661    2.4278 N.pl3     1 <0>        -1.0231
     12 S1         -1.9837   -1.0698    3.8463 S.o2      1 <0>         2.6909
     13 O3         -1.1221   -0.6528    4.8966 O.2       1 <0>        -0.9502
     14 O4         -3.3259   -0.6164    3.7366 O.2       1 <0>        -0.9270
     15 C7         -2.0507   -2.8290    3.9183 C.ar      1 <0>        -0.7289
     16 C8         -3.1347   -3.5006    3.3833 C.ar      1 <0>         0.0516
     17 C9         -3.1904   -4.8794    3.4380 C.ar      1 <0>        -0.2250
     18 C10        -2.1559   -5.5917    4.0313 C.ar      1 <0>         0.2720
     19 C11        -1.0685   -4.9140    4.5678 C.ar      1 <0>        -0.2218
     20 C12        -1.0165   -3.5354    4.5046 C.ar      1 <0>         0.0276
     21 N4         -2.2092   -6.9863    4.0888 N.pl3     1 <0>        -0.8658
     22 H1          1.0053    1.8021    0.0021 H         1 <0>         0.1033
     23 H2         -0.5445    1.7859   -0.8732 H         1 <0>         0.0520
     24 H3         -0.5275    1.7763    0.9067 H         1 <0>         0.0467
     25 H4         -4.5332   -2.3918    0.0313 H         1 <0>         0.2149
     26 H5         -2.1497   -2.1063   -3.5634 H         1 <0>         0.0658
     27 H6         -2.9792   -0.5315   -3.5471 H         1 <0>         0.0653
     28 H7         -1.4471   -0.7213   -4.4332 H         1 <0>         0.1034
     29 H8         -3.9388   -2.9461    2.9224 H         1 <0>         0.1520
     30 H9         -4.0375   -5.4032    3.0203 H         1 <0>         0.1303
     31 H10        -0.2627   -5.4648    5.0301 H         1 <0>         0.1299
     32 H11        -0.1692   -3.0080    4.9176 H         1 <0>         0.1379
     33 H12        -2.9693   -7.4584    3.7141 H         1 <0>         0.4035
     34 H13        -1.4863   -7.4826    4.5034 H         1 <0>         0.4032
     35 H14        -0.3720   -0.2148    2.4459 H         1 <0>         0.4393
@<TRIPOS>BOND
     1    1    2 1
     2    1   22 1
     3    1   23 1
     4    1   24 1
     5    2    3 1
     6    3    8 ar
     7    3    4 ar
     8    4    5 ar
     9    4   11 1
    10    5    6 ar
    11    6    7 ar
    12    6   25 1
    13    7    8 ar
    14    8    9 1
    15    9   10 1
    16   10   26 1
    17   10   27 1
    18   10   28 1
    19   11   12 1
    20   11   35 1
    21   12   13 2
    22   12   14 2
    23   12   15 1
    24   15   20 ar
    25   15   16 ar
    26   16   17 ar
    27   16   29 1
    28   17   18 ar
    29   17   30 1
    30   18   19 ar
    31   18   21 1
    32   19   20 ar
    33   19   31 1
    34   20   32 1
    35   21   33 1
    36   21   34 1
@<TRIPOS>MOLECULE
ZINC03830255
   42    43     0     0     0
SMALL
USER_CHARGES

@<TRIPOS>ATOM
      1 C1         -0.0184    1.5028    0.0103 C.3       1 <0>        -0.1462
      2 C2          0.0021   -0.0041    0.0020 C.2       1 <0>         0.4580
      3 O1          1.0565   -0.5939   -0.0112 O.2       1 <0>        -0.5142
      4 O2         -1.1511   -0.6910    0.0093 O.3       1 <0>        -0.3417
      5 C3         -1.0570   -2.1168    0.0008 C.3       1 <0>         0.0709
      6 C4         -2.4627   -2.7208    0.0110 C.3       1 <0>         0.0701
      7 H1         -3.0531   -2.3173   -0.8116 H         1 <0>         0.1050
      8 C5         -2.3853   -4.2651   -0.0896 C.3       1 <0>         0.0701
      9 H2         -1.5386   -4.6536    0.4764 H         1 <0>         0.1247
     10 C6         -3.7321   -4.6712    0.5685 C.3       1 <0>         0.0631
     11 H3         -3.6597   -5.6597    1.0222 H         1 <0>         0.1216
     12 C7         -3.9104   -3.5827    1.6486 C.3       1 <0>         0.2994
     13 H4         -3.5782   -3.9625    2.6148 H         1 <0>         0.1504
     14 O3         -3.1098   -2.4565    1.2659 O.3       1 <0>        -0.3472
     15 N1         -5.3188   -3.1872    1.7278 N.am      1 <0>        -0.4064
     16 C8         -5.8978   -3.0505    2.9343 C.2       1 <0>         0.6244
     17 O4         -5.2470   -3.2569    3.9454 O.2       1 <0>        -0.5843
     18 N2         -7.1811   -2.6898    3.0331 N.2       1 <0>        -0.6292
     19 C9         -7.8761   -2.4688    1.9263 C.2       1 <0>         0.4367
     20 O5         -9.1754   -2.1023    1.9905 O.3       1 <0>        -0.6571
     21 C10        -7.2326   -2.6232    0.6779 C.2       1 <0>        -0.0270
     22 N3         -5.9750   -2.9725    0.6421 N.2       1 <0>        -0.1974
     23 O6         -4.7968   -4.6279   -0.3836 O.3       1 <0>        -0.2939
     24 C11        -5.8149   -5.4830   -0.1987 C.2       1 <0>         0.4634
     25 O7         -5.8024   -6.2431    0.7404 O.2       1 <0>        -0.5137
     26 C12        -6.9733   -5.4949   -1.1625 C.3       1 <0>        -0.1441
     27 O8         -2.3282   -4.6902   -1.4527 O.3       1 <0>        -0.3179
     28 C13        -1.1089   -4.8427   -1.9929 C.2       1 <0>         0.4533
     29 O9         -0.1228   -4.6225   -1.3304 O.2       1 <0>        -0.5045
     30 C14        -0.9701   -5.2885   -3.4257 C.3       1 <0>        -0.1449
     31 H5          1.0042    1.8801    0.0026 H         1 <0>         0.1005
     32 H6         -0.5455    1.8639   -0.8728 H         1 <0>         0.1001
     33 H7         -0.5286    1.8543    0.9071 H         1 <0>         0.1022
     34 H8         -0.5289   -2.4407   -0.8960 H         1 <0>         0.0877
     35 H9         -0.5119   -2.4503    0.8838 H         1 <0>         0.0804
     36 H10        -7.7754   -2.4494   -0.2394 H         1 <0>         0.1752
     37 H11        -6.6109   -5.7295   -2.1634 H         1 <0>         0.0985
     38 H12        -7.6965   -6.2490   -0.8520 H         1 <0>         0.0989
     39 H13        -7.4505   -4.5150   -1.1693 H         1 <0>         0.1062
     40 H14        -0.9497   -4.4152   -4.0777 H         1 <0>         0.1074
     41 H15        -0.0439   -5.8512   -3.5430 H         1 <0>         0.1046
     42 H16        -1.8161   -5.9217   -3.6929 H         1 <0>         0.0968
@<TRIPOS>BOND
     1    1    2 1
     2    1   31 1
     3    1   32 1
     4    1   33 1
     5    2    3 2
     6    2    4 1
     7    4    5 1
     8    5    6 1
     9    5   34 1
    10    5   35 1
    11    6    7 1
    12    6   14 1
    13    6    8 1
    14    8    9 1
    15    8   10 1
    16    8   27 1
    17   10   11 1
    18   10   12 1
    19   10   23 1
    20   12   13 1
    21   12   14 1
    22   12   15 1
    23   15   22 1
    24   15   16 am
    25   16   17 2
    26   16   18 1
    27   18   19 2
    28   19   20 1
    29   19   21 1
    30   21   22 2
    31   21   36 1
    32   23   24 1
    33   24   25 2
    34   24   26 1
    35   26   37 1
    36   26   38 1
    37   26   39 1
    38   27   28 1
    39   28   29 2
    40   28   30 1
    41   30   40 1
    42   30   41 1
    43   30   42 1
@<TRIPOS>MOLECULE
ZINC03830256
   42    43     0     0     0
SMALL
USER_CHARGES

@<TRIPOS>ATOM
      1 C1         -0.0184    1.5028    0.0103 C.3       1 <0>        -0.1458
      2 C2          0.0021   -0.0041    0.0020 C.2       1 <0>         0.4589
      3 O1          1.0565   -0.5939   -0.0112 O.2       1 <0>        -0.5129
      4 O2         -1.1511   -0.6910    0.0093 O.3       1 <0>        -0.3436
      5 C3         -1.0570   -2.1168    0.0008 C.3       1 <0>         0.0756
      6 C4         -2.4627   -2.7208    0.0110 C.3       1 <0>         0.0709
      7 H1         -3.0381   -2.3268    0.8486 H         1 <0>         0.1007
      8 C5         -2.3854   -4.2617    0.0891 C.3       1 <0>         0.0653
      9 H2         -1.4302   -4.6163   -0.2980 H         1 <0>         0.1238
     10 C6         -3.5461   -4.7419   -0.8106 C.3       1 <0>         0.0597
     11 H3         -4.2666   -5.3176   -0.2296 H         1 <0>         0.1225
     12 C7         -4.1873   -3.4344   -1.3259 C.3       1 <0>         0.3034
     13 H4         -5.0289   -3.1499   -0.6943 H         1 <0>         0.1388
     14 O3         -3.1372   -2.4456   -1.2361 O.3       1 <0>        -0.3462
     15 N1         -4.6244   -3.5937   -2.7151 N.am      1 <0>        -0.3974
     16 C8         -5.8362   -3.1383   -3.0807 C.2       1 <0>         0.6253
     17 O4         -6.5554   -2.6001   -2.2553 O.2       1 <0>        -0.5823
     18 N2         -6.2575   -3.2709   -4.3424 N.2       1 <0>        -0.6269
     19 C9         -5.4655   -3.8576   -5.2287 C.2       1 <0>         0.4370
     20 O5         -5.8605   -4.0074   -6.5124 O.3       1 <0>        -0.6546
     21 C10        -4.2003   -4.3231   -4.8057 C.2       1 <0>        -0.0240
     22 N3         -3.8392   -4.1616   -3.5615 N.2       1 <0>        -0.1983
     23 O6         -3.0463   -5.5208   -1.8995 O.3       1 <0>        -0.3071
     24 C11        -3.8509   -6.4809   -2.3817 C.2       1 <0>         0.4650
     25 O7         -4.9432   -6.6544   -1.8954 O.2       1 <0>        -0.5101
     26 C12        -3.3917   -7.3426   -3.5297 C.3       1 <0>        -0.1449
     27 O8         -2.5746   -4.7049    1.4344 O.3       1 <0>        -0.3352
     28 C13        -1.4735   -4.8541    2.1874 C.2       1 <0>         0.4575
     29 O9         -0.3851   -4.6161    1.7199 O.2       1 <0>        -0.5018
     30 C14        -1.5949   -5.3182    3.6160 C.3       1 <0>        -0.1456
     31 H5          1.0042    1.8801    0.0026 H         1 <0>         0.1008
     32 H6         -0.5455    1.8639   -0.8728 H         1 <0>         0.1024
     33 H7         -0.5286    1.8543    0.9071 H         1 <0>         0.0999
     34 H8         -0.5289   -2.4407   -0.8960 H         1 <0>         0.0842
     35 H9         -0.5119   -2.4503    0.8838 H         1 <0>         0.0930
     36 H10        -3.5353   -4.8048   -5.5073 H         1 <0>         0.1766
     37 H11        -2.4860   -7.8772   -3.2431 H         1 <0>         0.0975
     38 H12        -4.1730   -8.0599   -3.7808 H         1 <0>         0.1005
     39 H13        -3.1838   -6.7138   -4.3954 H         1 <0>         0.1070
     40 H14        -1.5440   -6.4065    3.6500 H         1 <0>         0.1076
     41 H15        -0.7798   -4.8979    4.2051 H         1 <0>         0.1055
     42 H16        -2.5485   -4.9860    4.0262 H         1 <0>         0.0974
@<TRIPOS>BOND
     1    1    2 1
     2    1   31 1
     3    1   32 1
     4    1   33 1
     5    2    3 2
     6    2    4 1
     7    4    5 1
     8    5    6 1
     9    5   34 1
    10    5   35 1
    11    6    7 1
    12    6   14 1
    13    6    8 1
    14    8    9 1
    15    8   10 1
    16    8   27 1
    17   10   11 1
    18   10   12 1
    19   10   23 1
    20   12   13 1
    21   12   14 1
    22   12   15 1
    23   15   22 1
    24   15   16 am
    25   16   17 2
    26   16   18 1
    27   18   19 2
    28   19   20 1
    29   19   21 1
    30   21   22 2
    31   21   36 1
    32   23   24 1
    33   24   25 2
    34   24   26 1
    35   26   37 1
    36   26   38 1
    37   26   39 1
    38   27   28 1
    39   28   29 2
    40   28   30 1
    41   30   40 1
    42   30   41 1
    43   30   42 1
@<TRIPOS>MOLECULE
ZINC03830257
   42    43     0     0     0
SMALL
USER_CHARGES

@<TRIPOS>ATOM
      1 C1         -0.0184    1.5028    0.0103 C.3       1 <0>        -0.1465
      2 C2          0.0021   -0.0041    0.0020 C.2       1 <0>         0.4602
      3 O1          1.0565   -0.5939   -0.0112 O.2       1 <0>        -0.5180
      4 O2         -1.1511   -0.6910    0.0093 O.3       1 <0>        -0.3390
      5 C3         -1.0570   -2.1168    0.0008 C.3       1 <0>         0.0699
      6 C4         -2.4627   -2.7208    0.0110 C.3       1 <0>         0.0665
      7 H1         -3.0540   -2.3179   -0.8113 H         1 <0>         0.1167
      8 C5         -2.3871   -4.2608   -0.0852 C.3       1 <0>         0.0721
      9 H2         -2.5534   -4.5880   -1.1115 H         1 <0>         0.1280
     10 C6         -3.5304   -4.7508    0.8313 C.3       1 <0>         0.0680
     11 H3         -3.1332   -5.3517    1.6494 H         1 <0>         0.1265
     12 C7         -4.1616   -3.4489    1.3727 C.3       1 <0>         0.2954
     13 H4         -4.4652   -3.5779    2.4116 H         1 <0>         0.1637
     14 O3         -3.1132   -2.4591    1.2735 O.3       1 <0>        -0.3413
     15 N1         -5.3103   -3.0590    0.5514 N.am      1 <0>        -0.4131
     16 C8         -6.4455   -2.6607    1.1531 C.2       1 <0>         0.6223
     17 O4         -6.5064   -2.6287    2.3711 O.2       1 <0>        -0.5840
     18 N2         -7.5071   -2.2991    0.4257 N.2       1 <0>        -0.6304
     19 C9         -7.4268   -2.3387   -0.8967 C.2       1 <0>         0.4365
     20 O5         -8.4814   -1.9795   -1.6618 O.3       1 <0>        -0.6565
     21 C10        -6.2174   -2.7632   -1.4913 C.2       1 <0>        -0.0119
     22 N3         -5.2108   -3.0997   -0.7308 N.2       1 <0>        -0.2103
     23 O6         -4.4879   -5.5000    0.0804 O.3       1 <0>        -0.3185
     24 C11        -5.1499   -6.4691    0.7318 C.2       1 <0>         0.4592
     25 O7         -4.9240   -6.6744    1.9008 O.2       1 <0>        -0.5063
     26 C12        -6.1750   -7.3010    0.0050 C.3       1 <0>        -0.1447
     27 O8         -1.1241   -4.7307    0.3904 O.3       1 <0>        -0.3403
     28 C13        -0.1444   -4.8687   -0.5167 C.2       1 <0>         0.4570
     29 O9         -0.3522   -4.5993   -1.6761 O.2       1 <0>        -0.5023
     30 C14         1.2148   -5.3595   -0.0891 C.3       1 <0>        -0.1464
     31 H5          1.0042    1.8801    0.0026 H         1 <0>         0.1010
     32 H6         -0.5455    1.8639   -0.8728 H         1 <0>         0.1015
     33 H7         -0.5286    1.8543    0.9071 H         1 <0>         0.1022
     34 H8         -0.5289   -2.4407   -0.8960 H         1 <0>         0.0871
     35 H9         -0.5119   -2.4503    0.8838 H         1 <0>         0.0818
     36 H10        -6.1248   -2.8048   -2.5665 H         1 <0>         0.1754
     37 H11        -5.6982   -7.8207   -0.8261 H         1 <0>         0.1012
     38 H12        -6.6038   -8.0308    0.6918 H         1 <0>         0.1033
     39 H13        -6.9644   -6.6533   -0.3764 H         1 <0>         0.1039
     40 H14         1.2467   -6.4468   -0.1581 H         1 <0>         0.1072
     41 H15         1.9770   -4.9315   -0.7402 H         1 <0>         0.1060
     42 H16         1.4037   -5.0550    0.9404 H         1 <0>         0.0966
@<TRIPOS>BOND
     1    1    2 1
     2    1   31 1
     3    1   32 1
     4    1   33 1
     5    2    3 2
     6    2    4 1
     7    4    5 1
     8    5    6 1
     9    5   34 1
    10    5   35 1
    11    6    7 1
    12    6   14 1
    13    6    8 1
    14    8    9 1
    15    8   10 1
    16    8   27 1
    17   10   11 1
    18   10   12 1
    19   10   23 1
    20   12   13 1
    21   12   14 1
    22   12   15 1
    23   15   22 1
    24   15   16 am
    25   16   17 2
    26   16   18 1
    27   18   19 2
    28   19   20 1
    29   19   21 1
    30   21   22 2
    31   21   36 1
    32   23   24 1
    33   24   25 2
    34   24   26 1
    35   26   37 1
    36   26   38 1
    37   26   39 1
    38   27   28 1
    39   28   29 2
    40   28   30 1
    41   30   40 1
    42   30   41 1
    43   30   42 1
@<TRIPOS>MOLECULE
ZINC19796087
   63    65     0     0     0
SMALL
USER_CHARGES

@<TRIPOS>ATOM
      1 C1          1.3947   -0.2351    1.5837 C.3       1 <0>        -0.0963
      2 C2          1.2348   -1.7274    1.7190 C.2       1 <0>         0.2813
      3 C3         -0.0098   -2.2708    1.5772 C.2       1 <0>        -0.3767
      4 C4         -0.1389   -3.7765    1.7183 C.3       1 <0>         0.1156
      5 H1         -0.5632   -4.1700    0.7946 H         1 <0>         0.0509
      6 C5          1.1491   -4.5272    2.0064 C.2       1 <0>        -0.3974
      7 C6          1.1651   -5.8967    2.1559 C.2       1 <0>         0.4735
      8 O1          2.3097   -6.5247    2.4900 O.3       1 <0>        -0.6459
      9 O2          0.0362   -6.6082    1.9680 O.3       1 <0>        -0.3360
     10 C7          0.1256   -8.0241    2.1395 C.3       1 <0>         0.0433
     11 C8          2.3165   -3.7691    2.1128 C.2       1 <0>         0.3164
     12 N1          2.3075   -2.4638    1.9658 N.2       1 <0>        -0.6451
     13 C9          3.6215   -4.4667    2.3979 C.3       1 <0>        -0.0918
     14 C10        -1.1068   -4.0632    2.8373 C.ar      1 <0>        -0.0333
     15 C11        -0.8840   -3.5364    4.0960 C.ar      1 <0>        -0.0545
     16 C12        -1.7717   -3.7994    5.1222 C.ar      1 <0>        -0.1270
     17 C13        -2.8828   -4.5887    4.8899 C.ar      1 <0>        -0.0788
     18 C14        -3.1060   -5.1146    3.6314 C.ar      1 <0>        -0.0570
     19 C15        -2.2203   -4.8480    2.6038 C.ar      1 <0>        -0.0205
     20 N2         -4.2952   -5.9601    3.3828 N.pl3     1 <0>         0.0438
     21 O3         -5.1137   -6.1242    4.2574 O.2       1 <0>        -0.1858
     22 O4         -4.4480   -6.4866    2.3053 O.3       1 <0>        -0.1636
     23 C16        -1.1306   -1.4651    1.3105 C.2       1 <0>         0.5231
     24 O5         -1.0153   -0.2531    1.2774 O.2       1 <0>        -0.5621
     25 O6         -2.3353   -2.0352    1.0911 O.3       1 <0>        -0.3397
     26 C17        -3.4202   -1.1592    0.7785 C.3       1 <0>         0.0787
     27 C18        -4.6950   -1.9797    0.5726 C.3       1 <0>         0.0587
     28 N3         -4.5394   -2.8381   -0.6093 N.3       1 <0>        -0.5241
     29 C19        -4.6425   -2.0536   -1.8470 C.3       1 <0>         0.0209
     30 C20        -5.5183   -3.9333   -0.5972 C.3       1 <0>         0.0954
     31 C21        -5.1018   -4.9903   -1.5873 C.ar      1 <0>        -0.0743
     32 C22        -5.6112   -4.9727   -2.8723 C.ar      1 <0>        -0.1177
     33 C23        -5.2292   -5.9422   -3.7806 C.ar      1 <0>        -0.1283
     34 C24        -4.3375   -6.9291   -3.4040 C.ar      1 <0>        -0.1228
     35 C25        -3.8274   -6.9462   -2.1193 C.ar      1 <0>        -0.1188
     36 C26        -4.2061   -5.9742   -1.2123 C.ar      1 <0>        -0.0816
     37 H2          2.4428    0.0318    1.7188 H         1 <0>         0.0542
     38 H3          1.0651    0.0773    0.5928 H         1 <0>         0.0740
     39 H4          0.7917    0.2652    2.3416 H         1 <0>         0.0776
     40 H5          0.4465   -8.2472    3.1570 H         1 <0>         0.0487
     41 H6         -0.8506   -8.4742    1.9595 H         1 <0>         0.0842
     42 H7          0.8492   -8.4307    1.4329 H         1 <0>         0.0524
     43 H8          3.7980   -5.2308    1.6409 H         1 <0>         0.0815
     44 H9          4.4339   -3.7403    2.3773 H         1 <0>         0.0491
     45 H10         3.5765   -4.9336    3.3818 H         1 <0>         0.0795
     46 H11        -0.0161   -2.9198    4.2775 H         1 <0>         0.1299
     47 H12        -1.5973   -3.3885    6.1057 H         1 <0>         0.1354
     48 H13        -3.5760   -4.7948    5.6920 H         1 <0>         0.1399
     49 H14        -2.3967   -5.2558    1.6194 H         1 <0>         0.1443
     50 H15        -3.5684   -0.4573    1.5991 H         1 <0>         0.0589
     51 H16        -3.1912   -0.6085   -0.1339 H         1 <0>         0.0588
     52 H17        -4.8738   -2.5999    1.4510 H         1 <0>         0.0775
     53 H18        -5.5400   -1.3073    0.4245 H         1 <0>         0.0517
     54 H19        -3.8118   -1.3500   -1.9015 H         1 <0>         0.0679
     55 H20        -4.6081   -2.7237   -2.7059 H         1 <0>         0.0720
     56 H21        -5.5843   -1.5048   -1.8519 H         1 <0>         0.0222
     57 H22        -5.5641   -4.3686    0.4011 H         1 <0>         0.0830
     58 H23        -6.5000   -3.5463   -0.8703 H         1 <0>         0.0388
     59 H24        -6.3078   -4.2017   -3.1665 H         1 <0>         0.1132
     60 H25        -5.6277   -5.9289   -4.7843 H         1 <0>         0.1156
     61 H26        -4.0396   -7.6870   -4.1134 H         1 <0>         0.1163
     62 H27        -3.1310   -7.7175   -1.8250 H         1 <0>         0.1210
     63 H28        -3.8048   -5.9854   -0.2097 H         1 <0>         0.1299
@<TRIPOS>BOND
     1    1    2 1
     2    1   37 1
     3    1   38 1
     4    1   39 1
     5    2   12 1
     6    2    3 2
     7    3    4 1
     8    3   23 1
     9    4    5 1
    10    4    6 1
    11    4   14 1
    12    6    7 2
    13    6   11 1
    14    7    8 1
    15    7    9 1
    16    9   10 1
    17   10   40 1
    18   10   41 1
    19   10   42 1
    20   11   12 2
    21   11   13 1
    22   13   43 1
    23   13   44 1
    24   13   45 1
    25   14   19 ar
    26   14   15 ar
    27   15   16 ar
    28   15   46 1
    29   16   17 ar
    30   16   47 1
    31   17   18 ar
    32   17   48 1
    33   18   19 ar
    34   18   20 1
    35   19   49 1
    36   20   21 2
    37   20   22 1
    38   23   24 2
    39   23   25 1
    40   25   26 1
    41   26   27 1
    42   26   50 1
    43   26   51 1
    44   27   28 1
    45   27   52 1
    46   27   53 1
    47   28   29 1
    48   28   30 1
    49   29   54 1
    50   29   55 1
    51   29   56 1
    52   30   31 1
    53   30   57 1
    54   30   58 1
    55   31   36 ar
    56   31   32 ar
    57   32   33 ar
    58   32   59 1
    59   33   34 ar
    60   33   60 1
    61   34   35 ar
    62   34   61 1
    63   35   36 ar
    64   35   62 1
    65   36   63 1
@<TRIPOS>MOLECULE
ZINC00601265
   63    65     0     0     0
SMALL
USER_CHARGES

@<TRIPOS>ATOM
      1 C1         -0.1447    1.4930    0.1304 C.3       1 <0>        -0.0959
      2 C2         -0.0591   -0.0099    0.0595 C.2       1 <0>         0.2818
      3 C3         -1.2163   -0.7321   -0.0018 C.2       1 <0>        -0.3765
      4 C4         -1.0979   -2.2435   -0.0729 C.3       1 <0>         0.1154
      5 H1         -1.6327   -2.6674    0.7770 H         1 <0>         0.0503
      6 C5          0.3158   -2.7977   -0.0682 C.2       1 <0>        -0.3978
      7 C6          0.5572   -4.1527   -0.1294 C.2       1 <0>         0.4742
      8 O1          1.8205   -4.6076   -0.2441 O.3       1 <0>        -0.6458
      9 O2         -0.4701   -5.0232   -0.0744 O.3       1 <0>        -0.3361
     10 C7         -0.1467   -6.4134   -0.1432 C.3       1 <0>         0.0434
     11 C8          1.3603   -1.8740    0.0004 C.2       1 <0>         0.3161
     12 N1          1.1357   -0.5809    0.0534 N.2       1 <0>        -0.6451
     13 C9          2.7823   -2.3730    0.0080 C.3       1 <0>        -0.0919
     14 C10        -1.7783   -2.7103   -1.3340 C.ar      1 <0>        -0.0335
     15 C11        -1.3310   -2.2679   -2.5651 C.ar      1 <0>        -0.0540
     16 C12        -1.9550   -2.6960   -3.7217 C.ar      1 <0>        -0.1278
     17 C13        -3.0261   -3.5670   -3.6476 C.ar      1 <0>        -0.0789
     18 C14        -3.4727   -4.0100   -2.4168 C.ar      1 <0>        -0.0571
     19 C15        -2.8458   -3.5851   -1.2601 C.ar      1 <0>        -0.0180
     20 N2         -4.6198   -4.9421   -2.3374 N.pl3     1 <0>         0.0451
     21 O3         -5.1661   -5.3159   -3.3491 O.2       1 <0>        -0.1871
     22 O4         -5.0104   -5.3296   -1.2609 O.3       1 <0>        -0.1641
     23 C16        -2.4715   -0.0988    0.0013 C.2       1 <0>         0.5223
     24 O5         -2.5407    1.1158    0.0595 O.2       1 <0>        -0.5622
     25 O6         -3.6007   -0.8374   -0.0601 O.3       1 <0>        -0.3389
     26 C17        -4.8411   -0.1280   -0.0529 C.3       1 <0>         0.0759
     27 C18        -5.9993   -1.1249   -0.1277 C.3       1 <0>         0.0599
     28 N3         -6.0156   -1.9487    1.0885 N.3       1 <0>        -0.5221
     29 C19        -6.3302   -1.1356    2.2708 C.3       1 <0>         0.0183
     30 C20        -6.9574   -3.0680    0.9536 C.3       1 <0>         0.0949
     31 C21        -6.7714   -4.0224    2.1049 C.ar      1 <0>        -0.0741
     32 C22        -5.8690   -5.0643    2.0001 C.ar      1 <0>        -0.0860
     33 C23        -5.6984   -5.9399    3.0561 C.ar      1 <0>        -0.1208
     34 C24        -6.4299   -5.7732    4.2172 C.ar      1 <0>        -0.1230
     35 C25        -7.3317   -4.7308    4.3223 C.ar      1 <0>        -0.1286
     36 C26        -7.4991   -3.8527    3.2679 C.ar      1 <0>        -0.1172
     37 H2          0.8605    1.9128    0.1687 H         1 <0>         0.0540
     38 H3         -0.6623    1.8695   -0.7519 H         1 <0>         0.0755
     39 H4         -0.6942    1.7838    1.0257 H         1 <0>         0.0760
     40 H5          0.5050   -6.6765    0.6899 H         1 <0>         0.0524
     41 H6         -1.0622   -7.0025   -0.0885 H         1 <0>         0.0837
     42 H7          0.3636   -6.6217   -1.0836 H         1 <0>         0.0491
     43 H8          2.9907   -2.8906   -0.9284 H         1 <0>         0.0816
     44 H9          3.4631   -1.5287    0.1158 H         1 <0>         0.0493
     45 H10         2.9215   -3.0608    0.8421 H         1 <0>         0.0790
     46 H11        -0.4943   -1.5875   -2.6231 H         1 <0>         0.1294
     47 H12        -1.6061   -2.3498   -4.6834 H         1 <0>         0.1350
     48 H13        -3.5141   -3.9010   -4.5513 H         1 <0>         0.1397
     49 H14        -3.1923   -3.9342   -0.2986 H         1 <0>         0.1456
     50 H15        -4.9215    0.4541    0.8652 H         1 <0>         0.0605
     51 H16        -4.8819    0.5414   -0.9122 H         1 <0>         0.0590
     52 H17        -6.9409   -0.5823   -0.2117 H         1 <0>         0.0491
     53 H18        -5.8706   -1.7666   -0.9994 H         1 <0>         0.0778
     54 H19        -7.3112   -0.6772    2.1460 H         1 <0>         0.0209
     55 H20        -6.3358   -1.7701    3.1571 H         1 <0>         0.0737
     56 H21        -5.5771   -0.3562    2.3867 H         1 <0>         0.0689
     57 H22        -7.9784   -2.6865    0.9592 H         1 <0>         0.0369
     58 H23        -6.7696   -3.5897    0.0152 H         1 <0>         0.0861
     59 H24        -5.2975   -5.1945    1.0930 H         1 <0>         0.1362
     60 H25        -4.9939   -6.7543    2.9740 H         1 <0>         0.1204
     61 H26        -6.2972   -6.4577    5.0420 H         1 <0>         0.1161
     62 H27        -7.9035   -4.6008    5.2293 H         1 <0>         0.1156
     63 H28        -8.2009   -3.0361    3.3514 H         1 <0>         0.1134
@<TRIPOS>BOND
     1    1    2 1
     2    1   37 1
     3    1   38 1
     4    1   39 1
     5    2   12 1
     6    2    3 2
     7    3    4 1
     8    3   23 1
     9    4    5 1
    10    4    6 1
    11    4   14 1
    12    6    7 2
    13    6   11 1
    14    7    8 1
    15    7    9 1
    16    9   10 1
    17   10   40 1
    18   10   41 1
    19   10   42 1
    20   11   12 2
    21   11   13 1
    22   13   43 1
    23   13   44 1
    24   13   45 1
    25   14   19 ar
    26   14   15 ar
    27   15   16 ar
    28   15   46 1
    29   16   17 ar
    30   16   47 1
    31   17   18 ar
    32   17   48 1
    33   18   19 ar
    34   18   20 1
    35   19   49 1
    36   20   21 2
    37   20   22 1
    38   23   24 2
    39   23   25 1
    40   25   26 1
    41   26   27 1
    42   26   50 1
    43   26   51 1
    44   27   28 1
    45   27   52 1
    46   27   53 1
    47   28   29 1
    48   28   30 1
    49   29   54 1
    50   29   55 1
    51   29   56 1
    52   30   31 1
    53   30   57 1
    54   30   58 1
    55   31   36 ar
    56   31   32 ar
    57   32   33 ar
    58   32   59 1
    59   33   34 ar
    60   33   60 1
    61   34   35 ar
    62   34   61 1
    63   35   36 ar
    64   35   62 1
    65   36   63 1
@<TRIPOS>MOLECULE
ZINC38212689
   11    11     0     0     0
SMALL
USER_CHARGES

@<TRIPOS>ATOM
      1 C1         -0.0160    1.3290    0.0093 C.2       1 <0>         0.1994
      2 C2          1.1555    2.0282    0.0019 C.2       1 <0>        -0.2330
      3 C3          2.3710    1.3162   -0.0135 C.2       1 <0>         0.5306
      4 O1          3.4384    1.9074   -0.0202 O.2       1 <0>        -0.5821
      5 N1          2.3312   -0.0334   -0.0204 N.am      1 <0>        -0.6540
      6 H1          3.1558   -0.5442   -0.0307 H         1 <0>         0.4023
      7 C4          1.1331   -0.6738   -0.0124 C.2       1 <0>         0.6064
      8 O2          1.1036   -2.0228   -0.0194 O.3       1 <0>        -0.6639
      9 N2          0.0021   -0.0041    0.0020 N.2       1 <0>        -0.6106
     10 F1          1.1499    3.3792    0.0088 F         1 <0>        -0.1461
     11 H2         -0.9587    1.8557    0.0257 H         1 <0>         0.1510
@<TRIPOS>BOND
     1    1    9 1
     2    1    2 2
     3    1   11 1
     4    2    3 1
     5    2   10 1
     6    3    4 2
     7    3    5 am
     8    5    6 1
     9    5    7 1
    10    7    8 1
    11    7    9 2
@<TRIPOS>MOLECULE
ZINC03876173
   37    39     0     0     0
SMALL
USER_CHARGES

@<TRIPOS>ATOM
      1 C1          0.0311    1.4460    0.4361 C.3       1 <0>        -0.1536
      2 C2          0.0024   -0.0754    0.2767 C.3       1 <0>        -0.1088
      3 C3         -1.4333   -0.5336    0.0129 C.3       1 <0>         0.0244
      4 H1         -2.0911   -0.1282    0.7816 H         1 <0>         0.0909
      5 C4         -1.8776   -0.0400   -1.3399 C.ar      1 <0>        -0.0663
      6 C5         -1.2118   -0.4524   -2.4790 C.ar      1 <0>        -0.1132
      7 C6         -1.6194    0.0004   -3.7199 C.ar      1 <0>        -0.1224
      8 C7         -2.6930    0.8652   -3.8217 C.ar      1 <0>        -0.1241
      9 C8         -3.3593    1.2768   -2.6826 C.ar      1 <0>        -0.1190
     10 C9         -2.9545    0.8207   -1.4421 C.ar      1 <0>        -0.1044
     11 C10        -1.4937   -2.0391    0.0430 C.2       1 <0>        -0.2677
     12 C11        -0.3476   -2.7750   -0.0817 C.2       1 <0>         0.2348
     13 C12        -0.4609   -4.2414   -0.0459 C.ar      1 <0>        -0.1909
     14 C13         0.6682   -5.0542   -0.1669 C.ar      1 <0>        -0.0665
     15 C14         0.5280   -6.4237   -0.1290 C.ar      1 <0>        -0.1353
     16 C15        -0.7262   -6.9952    0.0283 C.ar      1 <0>        -0.0577
     17 C16        -1.8492   -6.2040    0.1484 C.ar      1 <0>        -0.1313
     18 C17        -1.7299   -4.8206    0.1132 C.ar      1 <0>         0.1647
     19 O1         -2.8192   -4.0309    0.2308 O.3       1 <0>        -0.2741
     20 C18        -2.7252   -2.6918    0.2047 C.2       1 <0>         0.5275
     21 O2         -3.7385   -2.0246    0.3198 O.2       1 <0>        -0.4543
     22 O3          0.8538   -2.1727   -0.2336 O.3       1 <0>        -0.4263
     23 H2          1.0539    1.7724    0.6240 H         1 <0>         0.0547
     24 H3         -0.3378    1.9139   -0.4767 H         1 <0>         0.0559
     25 H4         -0.6025    1.7355    1.2744 H         1 <0>         0.0527
     26 H5          0.6360   -0.3649   -0.5617 H         1 <0>         0.0881
     27 H6          0.3713   -0.5434    1.1894 H         1 <0>         0.0661
     28 H7         -0.3731   -1.1281   -2.3995 H         1 <0>         0.1157
     29 H8         -1.0988   -0.3213   -4.6098 H         1 <0>         0.1189
     30 H9         -3.0110    1.2195   -4.7911 H         1 <0>         0.1198
     31 H10        -4.1979    1.9528   -2.7621 H         1 <0>         0.1214
     32 H11        -3.4774    1.1394   -0.5525 H         1 <0>         0.1218
     33 H12         1.6456   -4.6115   -0.2898 H         1 <0>         0.1370
     34 H13         1.3987   -7.0558   -0.2226 H         1 <0>         0.1399
     35 H14        -0.8241   -8.0704    0.0566 H         1 <0>         0.1444
     36 H15        -2.8208   -6.6596    0.2697 H         1 <0>         0.1486
     37 H16         1.5953   -2.7884   -0.3121 H         1 <0>         0.3887
@<TRIPOS>BOND
     1    1    2 1
     2    1   23 1
     3    1   24 1
     4    1   25 1
     5    2    3 1
     6    2   26 1
     7    2   27 1
     8    3    4 1
     9    3    5 1
    10    3   11 1
    11    5   10 ar
    12    5    6 ar
    13    6    7 ar
    14    6   28 1
    15    7    8 ar
    16    7   29 1
    17    8    9 ar
    18    8   30 1
    19    9   10 ar
    20    9   31 1
    21   10   32 1
    22   11   20 1
    23   11   12 2
    24   12   13 1
    25   12   22 1
    26   13   18 ar
    27   13   14 ar
    28   14   15 ar
    29   14   33 1
    30   15   16 ar
    31   15   34 1
    32   16   17 ar
    33   16   35 1
    34   17   18 ar
    35   17   36 1
    36   18   19 1
    37   19   20 1
    38   20   21 2
    39   22   37 1
@<TRIPOS>MOLECULE
ZINC03876174
   37    39     0     0     0
SMALL
USER_CHARGES

@<TRIPOS>ATOM
      1 C1         -0.9909    1.8669    0.5460 C.3       1 <0>        -0.1504
      2 C2         -0.4184    0.6054   -0.1034 C.3       1 <0>        -0.1224
      3 C3         -1.4333   -0.5336    0.0129 C.3       1 <0>         0.0222
      4 H1         -1.7655   -0.6201    1.0474 H         1 <0>         0.0986
      5 C4         -0.7892   -1.8263   -0.4176 C.ar      1 <0>        -0.0757
      6 C5          0.2111   -1.8160   -1.3716 C.ar      1 <0>        -0.1030
      7 C6          0.8019   -3.0017   -1.7664 C.ar      1 <0>        -0.1260
      8 C7          0.3927   -4.1977   -1.2069 C.ar      1 <0>        -0.1235
      9 C8         -0.6069   -4.2079   -0.2522 C.ar      1 <0>        -0.1219
     10 C9         -1.1948   -3.0217    0.1457 C.ar      1 <0>        -0.1129
     11 C10        -2.6178   -0.2434   -0.8725 C.2       1 <0>        -0.2649
     12 C11        -2.4303    0.0598   -2.1928 C.2       1 <0>         0.2424
     13 C12        -3.6195    0.3351   -3.0140 C.ar      1 <0>        -0.1904
     14 C13        -3.5018    0.6507   -4.3693 C.ar      1 <0>        -0.0667
     15 C14        -4.6349    0.9027   -5.1103 C.ar      1 <0>        -0.1346
     16 C15        -5.8873    0.8439   -4.5166 C.ar      1 <0>        -0.0580
     17 C16        -6.0175    0.5338   -3.1793 C.ar      1 <0>        -0.1307
     18 C17        -4.8874    0.2758   -2.4140 C.ar      1 <0>         0.1639
     19 O1         -4.9970   -0.0308   -1.1032 O.3       1 <0>        -0.2734
     20 C18        -3.9181   -0.2887   -0.3470 C.2       1 <0>         0.5286
     21 O2         -4.0720   -0.5651    0.8299 O.2       1 <0>        -0.4594
     22 O3         -1.1888    0.1056   -2.7275 O.3       1 <0>        -0.4311
     23 H2         -0.2679    2.6783    0.4631 H         1 <0>         0.0551
     24 H3         -1.9138    2.1494    0.0395 H         1 <0>         0.0478
     25 H4         -1.1989    1.6716    1.5980 H         1 <0>         0.0558
     26 H5         -0.2104    0.8006   -1.1554 H         1 <0>         0.0831
     27 H6          0.5045    0.3228    0.4031 H         1 <0>         0.0688
     28 H7          0.5307   -0.8816   -1.8088 H         1 <0>         0.1311
     29 H8          1.5829   -2.9937   -2.5123 H         1 <0>         0.1192
     30 H9          0.8538   -5.1241   -1.5159 H         1 <0>         0.1189
     31 H10        -0.9268   -5.1423    0.1847 H         1 <0>         0.1203
     32 H11        -1.9732   -3.0293    0.8943 H         1 <0>         0.1211
     33 H12        -2.5277    0.6974   -4.8335 H         1 <0>         0.1365
     34 H13        -4.5481    1.1475   -6.1586 H         1 <0>         0.1400
     35 H14        -6.7690    1.0434   -5.1075 H         1 <0>         0.1446
     36 H15        -6.9974    0.4916   -2.7272 H         1 <0>         0.1488
     37 H16        -1.1737    0.3294   -3.6681 H         1 <0>         0.3983
@<TRIPOS>BOND
     1    1    2 1
     2    1   23 1
     3    1   24 1
     4    1   25 1
     5    2    3 1
     6    2   26 1
     7    2   27 1
     8    3    4 1
     9    3    5 1
    10    3   11 1
    11    5   10 ar
    12    5    6 ar
    13    6    7 ar
    14    6   28 1
    15    7    8 ar
    16    7   29 1
    17    8    9 ar
    18    8   30 1
    19    9   10 ar
    20    9   31 1
    21   10   32 1
    22   11   20 1
    23   11   12 2
    24   12   13 1
    25   12   22 1
    26   13   18 ar
    27   13   14 ar
    28   14   15 ar
    29   14   33 1
    30   15   16 ar
    31   15   34 1
    32   16   17 ar
    33   16   35 1
    34   17   18 ar
    35   17   36 1
    36   18   19 1
    37   19   20 1
    38   20   21 2
    39   22   37 1
@<TRIPOS>MOLECULE
ZINC19702119
   39    42     0     0     0
SMALL
USER_CHARGES

@<TRIPOS>ATOM
      1 C1         -0.0178    1.4648    0.0101 C.3       1 <0>         0.0209
      2 N1          0.0021   -0.0041    0.0020 N.3       1 <0>        -0.5267
      3 C2         -1.3696   -0.5520   -0.0129 C.3       1 <0>         0.0369
      4 C3         -1.2587   -2.0140   -0.4414 C.3       1 <0>         0.1508
      5 N2         -0.2104   -2.6979    0.3284 N.pl3     1 <0>        -0.6237
      6 C4         -0.0943   -4.0707    0.1064 C.ar      1 <0>         0.3753
      7 C5         -0.3267   -4.9738    1.1232 C.ar      1 <0>        -0.1410
      8 C6         -0.1059   -6.3221    0.9104 C.ar      1 <0>        -0.0580
      9 C7          0.2932   -6.7278   -0.3578 C.ar      1 <0>        -0.1849
     10 C8          0.4527   -5.7794   -1.3480 C.ar      1 <0>         0.1154
     11 N3          0.2613   -4.4979   -1.1005 N.ar      1 <0>        -0.4972
     12 C9         -0.9013   -4.4894    2.4157 C.3       1 <0>        -0.0291
     13 C10        -0.0060   -3.5560    3.1696 C.ar      1 <0>        -0.0590
     14 C11         0.1339   -3.8590    4.5295 C.ar      1 <0>        -0.1210
     15 C12         0.8955   -3.0778    5.3654 C.ar      1 <0>        -0.1186
     16 C13         1.5355   -1.9634    4.8545 C.ar      1 <0>        -0.1174
     17 C14         1.4109   -1.6701    3.5176 C.ar      1 <0>        -0.1238
     18 C15         0.6525   -2.4748    2.6589 C.ar      1 <0>        -0.0908
     19 C16         0.7020   -2.0462    1.2178 C.3       1 <0>         0.2293
     20 H1          1.6969   -2.3259    0.8715 H         1 <0>         0.0579
     21 C17         0.7034   -0.5254    1.1756 C.3       1 <0>         0.0547
     22 H2          1.0047    1.8421    0.0024 H         1 <0>         0.0713
     23 H3         -0.5450    1.8259   -0.8730 H         1 <0>         0.0737
     24 H4         -0.5280    1.8163    0.9069 H         1 <0>         0.0282
     25 H5         -1.8068   -0.4882    0.9835 H         1 <0>         0.0458
     26 H6         -1.9829   -0.0007   -0.7257 H         1 <0>         0.0907
     27 H7         -2.2131   -2.5122   -0.2709 H         1 <0>         0.0539
     28 H8         -1.0139   -2.0603   -1.5025 H         1 <0>         0.0678
     29 H9         -0.2394   -7.0394    1.7068 H         1 <0>         0.1364
     30 H10         0.4764   -7.7717   -0.5656 H         1 <0>         0.1367
     31 H11         0.7392   -6.0916   -2.3414 H         1 <0>         0.1559
     32 H12        -1.8406   -3.9771    2.2077 H         1 <0>         0.0849
     33 H13        -1.1129   -5.3527    3.0467 H         1 <0>         0.0801
     34 H14        -0.3687   -4.7265    4.9310 H         1 <0>         0.1207
     35 H15         0.9929   -3.3315    6.4106 H         1 <0>         0.1241
     36 H16         2.1272   -1.3304    5.4992 H         1 <0>         0.1247
     37 H17         1.9097   -0.7985    3.1202 H         1 <0>         0.1225
     38 H18         1.7347   -0.1731    1.1568 H         1 <0>         0.0868
     39 H19         0.2182   -0.1462    2.0750 H         1 <0>         0.0458
@<TRIPOS>BOND
     1    1    2 1
     2    1   22 1
     3    1   23 1
     4    1   24 1
     5    2   21 1
     6    2    3 1
     7    3    4 1
     8    3   25 1
     9    3   26 1
    10    4    5 1
    11    4   27 1
    12    4   28 1
    13    5   19 1
    14    5    6 1
    15    6   11 ar
    16    6    7 ar
    17    7    8 ar
    18    7   12 1
    19    8    9 ar
    20    8   29 1
    21    9   10 ar
    22    9   30 1
    23   10   11 ar
    24   10   31 1
    25   12   13 1
    26   12   32 1
    27   12   33 1
    28   13   18 ar
    29   13   14 ar
    30   14   15 ar
    31   14   34 1
    32   15   16 ar
    33   15   35 1
    34   16   17 ar
    35   16   36 1
    36   17   18 ar
    37   17   37 1
    38   18   19 1
    39   19   20 1
    40   19   21 1
    41   21   38 1
    42   21   39 1
@<TRIPOS>MOLECULE
ZINC19364226
   64    67     0     0     0
SMALL
USER_CHARGES
1-[(4-tert-butylphenyl)methyl]-4-[(S)-(4-chlorophenyl)-phenyl-methyl]piperazine
@<TRIPOS>ATOM
      1 C1         -0.8323   -7.7871   -0.0276 C.3       1 <0>        -0.1405
      2 C2          0.3165   -6.9828   -0.6393 C.3       1 <0>        -0.0302
      3 C3          0.4677   -7.3518   -2.1164 C.3       1 <0>        -0.1465
      4 C4          1.6156   -7.3042    0.1022 C.3       1 <0>        -0.1403
      5 C5          0.0195   -5.5104   -0.5172 C.ar      1 <0>        -0.0672
      6 C6         -0.1587   -4.9423    0.7304 C.ar      1 <0>        -0.1158
      7 C7         -0.4311   -3.5917    0.8423 C.ar      1 <0>        -0.1116
      8 C8         -0.5244   -2.8090   -0.2932 C.ar      1 <0>        -0.0826
      9 C9         -0.3509   -3.3779   -1.5411 C.ar      1 <0>        -0.0957
     10 C10        -0.0742   -4.7277   -1.6528 C.ar      1 <0>        -0.1218
     11 C11        -0.8213   -1.3365   -0.1712 C.3       1 <0>         0.0939
     12 N1          0.4391   -0.5905   -0.0585 N.3       1 <0>        -0.5324
     13 C12         0.2073    0.8559   -0.1758 C.3       1 <0>         0.0580
     14 C13         1.5496    1.5900   -0.1332 C.3       1 <0>         0.0574
     15 N2          2.2401    1.2705    1.1240 N.3       1 <0>        -0.5292
     16 C14         2.4719   -0.1759    1.2413 C.3       1 <0>         0.0573
     17 C15         1.1297   -0.9101    1.1987 C.3       1 <0>         0.0559
     18 C16         3.5006    2.0165    1.2367 C.3       1 <0>         0.1672
     19 H1          4.1570    1.7052    0.4107 H         1 <0>         0.0598
     20 C17         3.2193    3.4943    1.1476 C.ar      1 <0>        -0.0776
     21 C18         2.1519    4.0376    1.8378 C.ar      1 <0>        -0.0901
     22 C19         1.8965    5.3939    1.7596 C.ar      1 <0>        -0.1233
     23 C20         2.7031    6.2055    0.9839 C.ar      1 <0>        -0.1172
     24 C21         3.7674    5.6614    0.2896 C.ar      1 <0>        -0.1201
     25 C22         4.0253    4.3058    0.3713 C.ar      1 <0>        -0.1121
     26 C23         4.1504    1.7077    2.5609 C.ar      1 <0>        -0.0702
     27 C24         3.3919    1.6954    3.7165 C.ar      1 <0>        -0.0769
     28 C25         3.9862    1.4067    4.9305 C.ar      1 <0>        -0.1136
     29 C26         5.3427    1.1412    4.9905 C.ar      1 <0>        -0.0326
     30 C27         6.1024    1.1593    3.8343 C.ar      1 <0>        -0.1105
     31 C28         5.5058    1.4425    2.6202 C.ar      1 <0>        -0.1001
     32 Cl1         6.0914    0.7861    6.5160 Cl        1 <0>        -0.0708
     33 H2         -0.9409   -7.5217    1.0344 H         1 <0>         0.0569
     34 H3         -0.6156   -8.8619   -0.1167 H         1 <0>         0.0592
     35 H4         -1.7663   -7.5559   -0.5607 H         1 <0>         0.0566
     36 H5          1.2937   -6.7735   -2.5561 H         1 <0>         0.0591
     37 H6         -0.4663   -7.1206   -2.6495 H         1 <0>         0.0590
     38 H7          0.6844   -8.4266   -2.2055 H         1 <0>         0.0589
     39 H8          2.4415   -6.7259   -0.3376 H         1 <0>         0.0566
     40 H9          1.8323   -8.3790    0.0132 H         1 <0>         0.0591
     41 H10         1.5069   -7.0388    1.1642 H         1 <0>         0.0569
     42 H11        -0.0855   -5.5538    1.6176 H         1 <0>         0.1191
     43 H12        -0.5707   -3.1480    1.8170 H         1 <0>         0.1167
     44 H13        -0.4281   -2.7672   -2.4285 H         1 <0>         0.1202
     45 H14         0.0654   -5.1714   -2.6275 H         1 <0>         0.1253
     46 H15        -1.3693   -0.9979   -1.0628 H         1 <0>         0.0834
     47 H16        -1.4338   -1.1590    0.7251 H         1 <0>         0.0434
     48 H17        -0.2988    1.0700   -1.1287 H         1 <0>         0.0807
     49 H18        -0.4239    1.1950    0.6589 H         1 <0>         0.0435
     50 H19         2.1692    1.2709   -0.9843 H         1 <0>         0.0435
     51 H20         1.3764    2.6747   -0.1921 H         1 <0>         0.0854
     52 H21         3.1031   -0.5150    0.4066 H         1 <0>         0.0432
     53 H22         2.9780   -0.3901    2.1942 H         1 <0>         0.0825
     54 H23         0.5092   -0.5914    2.0492 H         1 <0>         0.0415
     55 H24         1.3021   -1.9950    1.2568 H         1 <0>         0.0849
     56 H25         1.5194    3.4029    2.4408 H         1 <0>         0.1278
     57 H26         1.0652    5.8191    2.3023 H         1 <0>         0.1214
     58 H27         2.5020    7.2647    0.9207 H         1 <0>         0.1207
     59 H28         4.3976    6.2955   -0.3164 H         1 <0>         0.1218
     60 H29         4.8569    3.8807   -0.1712 H         1 <0>         0.1189
     61 H30         2.3338    1.9070    3.6702 H         1 <0>         0.1374
     62 H31         3.3927    1.3928    5.8327 H         1 <0>         0.1329
     63 H32         7.1614    0.9524    3.8806 H         1 <0>         0.1334
     64 H33         6.0988    1.4570    1.7176 H         1 <0>         0.1294
@<TRIPOS>BOND
     1    1    2 1
     2    1   33 1
     3    1   34 1
     4    1   35 1
     5    2    3 1
     6    2    4 1
     7    2    5 1
     8    3   36 1
     9    3   37 1
    10    3   38 1
    11    4   39 1
    12    4   40 1
    13    4   41 1
    14    5   10 ar
    15    5    6 ar
    16    6    7 ar
    17    6   42 1
    18    7    8 ar
    19    7   43 1
    20    8    9 ar
    21    8   11 1
    22    9   10 ar
    23    9   44 1
    24   10   45 1
    25   11   12 1
    26   11   46 1
    27   11   47 1
    28   12   17 1
    29   12   13 1
    30   13   14 1
    31   13   48 1
    32   13   49 1
    33   14   15 1
    34   14   50 1
    35   14   51 1
    36   15   16 1
    37   15   18 1
    38   16   17 1
    39   16   52 1
    40   16   53 1
    41   17   54 1
    42   17   55 1
    43   18   19 1
    44   18   20 1
    45   18   26 1
    46   20   25 ar
    47   20   21 ar
    48   21   22 ar
    49   21   56 1
    50   22   23 ar
    51   22   57 1
    52   23   24 ar
    53   23   58 1
    54   24   25 ar
    55   24   59 1
    56   25   60 1
    57   26   31 ar
    58   26   27 ar
    59   27   28 ar
    60   27   61 1
    61   28   29 ar
    62   28   62 1
    63   29   30 ar
    64   29   32 1
    65   30   31 ar
    66   30   63 1
    67   31   64 1
@<TRIPOS>MOLECULE
ZINC19364226
   65    68     0     0     0
SMALL
USER_CHARGES
1-[(4-tert-butylphenyl)methyl]-4-[(S)-(4-chlorophenyl)-phenyl-methyl]piperazine
@<TRIPOS>ATOM
      1 C1         -0.8323   -7.7871   -0.0276 C.3       1 <0>        -0.1428
      2 C2          0.3165   -6.9828   -0.6393 C.3       1 <0>        -0.0332
      3 C3          0.4677   -7.3518   -2.1164 C.3       1 <0>        -0.1489
      4 C4          1.6156   -7.3042    0.1022 C.3       1 <0>        -0.1407
      5 C5          0.0195   -5.5104   -0.5172 C.ar      1 <0>        -0.0544
      6 C6         -0.1587   -4.9423    0.7304 C.ar      1 <0>        -0.1143
      7 C7         -0.4311   -3.5917    0.8423 C.ar      1 <0>        -0.1154
      8 C8         -0.5244   -2.8090   -0.2932 C.ar      1 <0>        -0.1011
      9 C9         -0.3509   -3.3779   -1.5411 C.ar      1 <0>        -0.0912
     10 C10        -0.0742   -4.7277   -1.6528 C.ar      1 <0>        -0.1191
     11 C11        -0.8213   -1.3365   -0.1712 C.3       1 <0>         0.0975
     12 N1          0.4391   -0.5905   -0.0585 N.3       1 <0>        -0.5319
     13 C12         0.2073    0.8559   -0.1758 C.3       1 <0>         0.0270
     14 C13         1.5496    1.5900   -0.1332 C.3       1 <0>        -0.0004
     15 N2          2.2401    1.2705    1.1240 N.4       1 <0>        -0.3992
     16 C14         2.4719   -0.1759    1.2413 C.3       1 <0>        -0.0005
     17 C15         1.1297   -0.9101    1.1987 C.3       1 <0>         0.0224
     18 C16         3.5006    2.0165    1.2367 C.3       1 <0>         0.1388
     19 H1          4.1570    1.7052    0.4107 H         1 <0>         0.1476
     20 C17         3.2193    3.4943    1.1476 C.ar      1 <0>        -0.1317
     21 C18         2.1519    4.0376    1.8378 C.ar      1 <0>        -0.1205
     22 C19         1.8965    5.3939    1.7596 C.ar      1 <0>        -0.1025
     23 C20         2.7031    6.2055    0.9839 C.ar      1 <0>        -0.0912
     24 C21         3.7674    5.6614    0.2896 C.ar      1 <0>        -0.1034
     25 C22         4.0253    4.3058    0.3713 C.ar      1 <0>        -0.0860
     26 C23         4.1504    1.7077    2.5609 C.ar      1 <0>        -0.1283
     27 C24         3.3919    1.6954    3.7165 C.ar      1 <0>        -0.1056
     28 C25         3.9862    1.4067    4.9305 C.ar      1 <0>        -0.0964
     29 C26         5.3427    1.1412    4.9905 C.ar      1 <0>        -0.0142
     30 C27         6.1024    1.1593    3.8343 C.ar      1 <0>        -0.0970
     31 C28         5.5058    1.4425    2.6202 C.ar      1 <0>        -0.0723
     32 Cl1         6.0914    0.7861    6.5160 Cl        1 <0>        -0.0388
     33 H2         -0.9409   -7.5217    1.0344 H         1 <0>         0.0572
     34 H3         -0.6156   -8.8619   -0.1167 H         1 <0>         0.0635
     35 H4         -1.7663   -7.5559   -0.5607 H         1 <0>         0.0580
     36 H5          1.2937   -6.7735   -2.5561 H         1 <0>         0.0591
     37 H6         -0.4663   -7.1206   -2.6495 H         1 <0>         0.0603
     38 H7          0.6844   -8.4266   -2.2055 H         1 <0>         0.0630
     39 H8          2.4415   -6.7259   -0.3376 H         1 <0>         0.0560
     40 H9          1.8323   -8.3790    0.0132 H         1 <0>         0.0633
     41 H10         1.5069   -7.0388    1.1642 H         1 <0>         0.0565
     42 H11        -0.0855   -5.5538    1.6176 H         1 <0>         0.1230
     43 H12        -0.5707   -3.1480    1.8170 H         1 <0>         0.1162
     44 H13        -0.4281   -2.7672   -2.4285 H         1 <0>         0.1223
     45 H14         0.0654   -5.1714   -2.6275 H         1 <0>         0.1299
     46 H15        -1.3693   -0.9979   -1.0628 H         1 <0>         0.0966
     47 H16        -1.4338   -1.1590    0.7251 H         1 <0>         0.0545
     48 H17        -0.2988    1.0700   -1.1287 H         1 <0>         0.1257
     49 H18        -0.4239    1.1950    0.6589 H         1 <0>         0.0597
     50 H19         2.1692    1.2709   -0.9843 H         1 <0>         0.1378
     51 H20         1.3764    2.6747   -0.1921 H         1 <0>         0.1375
     52 H21         3.1031   -0.5150    0.4066 H         1 <0>         0.1377
     53 H22         2.9780   -0.3901    2.1942 H         1 <0>         0.1353
     54 H23         0.5092   -0.5914    2.0492 H         1 <0>         0.0588
     55 H24         1.3021   -1.9950    1.2568 H         1 <0>         0.1288
     56 H25         1.5194    3.4029    2.4408 H         1 <0>         0.1148
     57 H26         1.0652    5.8191    2.3023 H         1 <0>         0.1354
     58 H27         2.5020    7.2647    0.9207 H         1 <0>         0.1361
     59 H28         4.3976    6.2955   -0.3164 H         1 <0>         0.1375
     60 H29         4.8569    3.8807   -0.1712 H         1 <0>         0.1333
     61 H30         2.3338    1.9070    3.6702 H         1 <0>         0.1250
     62 H31         3.3927    1.3928    5.8327 H         1 <0>         0.1462
     63 H32         7.1614    0.9524    3.8806 H         1 <0>         0.1483
     64 H33         6.0988    1.4570    1.7176 H         1 <0>         0.1433
     65 H34         1.5904    1.5791    1.9563 H         1 <0>         0.4269
@<TRIPOS>BOND
     1    1    2 1
     2    1   33 1
     3    1   34 1
     4    1   35 1
     5    2    3 1
     6    2    4 1
     7    2    5 1
     8    3   36 1
     9    3   37 1
    10    3   38 1
    11    4   39 1
    12    4   40 1
    13    4   41 1
    14    5   10 ar
    15    5    6 ar
    16    6    7 ar
    17    6   42 1
    18    7    8 ar
    19    7   43 1
    20    8    9 ar
    21    8   11 1
    22    9   10 ar
    23    9   44 1
    24   10   45 1
    25   11   12 1
    26   11   46 1
    27   11   47 1
    28   12   17 1
    29   12   13 1
    30   13   14 1
    31   13   48 1
    32   13   49 1
    33   14   15 1
    34   14   50 1
    35   14   51 1
    36   15   16 1
    37   15   18 1
    38   15   65 1
    39   16   17 1
    40   16   52 1
    41   16   53 1
    42   17   54 1
    43   17   55 1
    44   18   19 1
    45   18   20 1
    46   18   26 1
    47   20   25 ar
    48   20   21 ar
    49   21   22 ar
    50   21   56 1
    51   22   23 ar
    52   22   57 1
    53   23   24 ar
    54   23   58 1
    55   24   25 ar
    56   24   59 1
    57   25   60 1
    58   26   31 ar
    59   26   27 ar
    60   27   28 ar
    61   27   61 1
    62   28   29 ar
    63   28   62 1
    64   29   30 ar
    65   29   32 1
    66   30   31 ar
    67   30   63 1
    68   31   64 1
@<TRIPOS>MOLECULE
ZINC08766760
   32    33     0     0     0
SMALL
USER_CHARGES

@<TRIPOS>ATOM
      1 C1         -0.0187    1.5258    0.0104 C.3       1 <0>        -0.1659
      2 C2          0.0021   -0.0041    0.0020 C.3       1 <0>        -0.1110
      3 C3          0.7421   -0.5109    1.2415 C.3       1 <0>        -0.0682
      4 C4          2.1995   -0.1084    1.1187 C.2       1 <0>         0.5453
      5 N1          2.7200    0.6584    2.1002 N.am      1 <0>        -0.6676
      6 C5          1.9914    1.0572    3.1491 C.2       1 <0>         0.7126
      7 O1          2.5397    1.7460    3.9863 O.2       1 <0>        -0.5212
      8 N2          0.7030    0.7533    3.3432 N.am      1 <0>        -0.5661
      9 C6          0.0081   -0.0053    2.4691 C.2       1 <0>         0.5444
     10 O2         -1.1591   -0.2729    2.6584 O.2       1 <0>        -0.4506
     11 C7          0.0262    1.2585    4.5402 C.3       1 <0>         0.0707
     12 O3          2.8721   -0.4626    0.1742 O.2       1 <0>        -0.4530
     13 C8          0.6740   -2.0164    1.2414 C.ar      1 <0>        -0.0817
     14 C9          0.0212   -2.6786    0.2186 C.ar      1 <0>        -0.0912
     15 C10        -0.0413   -4.0596    0.2185 C.ar      1 <0>        -0.1129
     16 C11         0.5494   -4.7783    1.2410 C.ar      1 <0>        -0.1051
     17 C12         1.2029   -4.1160    2.2633 C.ar      1 <0>        -0.1111
     18 C13         1.2691   -2.7352    2.2612 C.ar      1 <0>        -0.1120
     19 H1          1.0039    1.9031    0.0027 H         1 <0>         0.0556
     20 H2         -0.5459    1.8868   -0.8726 H         1 <0>         0.0798
     21 H3         -0.5289    1.8773    0.9072 H         1 <0>         0.0562
     22 H4         -1.0205   -0.3814    0.0098 H         1 <0>         0.1010
     23 H5          0.5123   -0.3556   -0.8948 H         1 <0>         0.1005
     24 H6          0.7267    1.8473    5.1324 H         1 <0>         0.1088
     25 H7         -0.8156    1.8847    4.2447 H         1 <0>         0.0835
     26 H8         -0.3360    0.4195    5.1342 H         1 <0>         0.0832
     27 H9         -0.4403   -2.1171   -0.5803 H         1 <0>         0.1356
     28 H10        -0.5519   -4.5769   -0.5803 H         1 <0>         0.1315
     29 H11         0.5000   -5.8571    1.2413 H         1 <0>         0.1291
     30 H12         1.6641   -4.6775    3.0624 H         1 <0>         0.1290
     31 H13         1.7829   -2.2180    3.0580 H         1 <0>         0.1140
     32 H14         3.6500    0.9281    2.0436 H         1 <0>         0.4366
@<TRIPOS>BOND
     1    1    2 1
     2    1   19 1
     3    1   20 1
     4    1   21 1
     5    2    3 1
     6    2   22 1
     7    2   23 1
     8    3    9 1
     9    3    4 1
    10    3   13 1
    11    4    5 am
    12    4   12 2
    13    5    6 am
    14    5   32 1
    15    6    7 2
    16    6    8 am
    17    8    9 am
    18    8   11 1
    19    9   10 2
    20   11   24 1
    21   11   25 1
    22   11   26 1
    23   13   18 ar
    24   13   14 ar
    25   14   15 ar
    26   14   27 1
    27   15   16 ar
    28   15   28 1
    29   16   17 ar
    30   16   29 1
    31   17   18 ar
    32   17   30 1
    33   18   31 1
@<TRIPOS>MOLECULE
ZINC00967473
   14    14     0     0     0
SMALL
USER_CHARGES

@<TRIPOS>ATOM
      1 C1         -0.0229    1.8381    0.0121 C.3       1 <0>        -0.0182
      2 C2          1.4944    2.1601   -0.0006 C.3       1 <0>        -0.0007
      3 H1          1.8289    2.2799   -1.0311 H         1 <0>         0.0439
      4 N1          2.2551    1.0684    0.6353 N.3       1 <0>        -0.6518
      5 C3          1.8286   -0.2488    0.0733 C.3       1 <0>         0.1072
      6 S1          0.0021   -0.0041    0.0020 S.3       1 <0>        -0.3301
      7 C4          1.7384    3.4412    0.7545 C.2       1 <0>         0.5072
      8 O1          2.3077    3.4146    1.8323 O.co2     1 <0>        -0.6680
      9 O2          1.3666    4.5044    0.2876 O.co2     1 <0>        -0.6949
     10 H2         -0.4968    2.2187    0.9170 H         1 <0>         0.0961
     11 H3         -0.5139    2.2284   -0.8793 H         1 <0>         0.0974
     12 H4          2.2448   -0.4069   -0.9216 H         1 <0>         0.0562
     13 H5          2.0913   -1.0675    0.7433 H         1 <0>         0.1072
     14 H6          3.2482    1.2056    0.5215 H         1 <0>         0.3483
@<TRIPOS>BOND
     1    1    6 1
     2    1    2 1
     3    1   10 1
     4    1   11 1
     5    2    3 1
     6    2    4 1
     7    2    7 1
     8    4    5 1
     9    4   14 1
    10    5    6 1
    11    5   12 1
    12    5   13 1
    13    7    8 2
    14    7    9 1
@<TRIPOS>MOLECULE
ZINC21985213
   36    37     0     0     0
SMALL
USER_CHARGES

@<TRIPOS>ATOM
      1 C1          0.1514    1.4310    0.2606 C.3       1 <0>        -0.1950
      2 C2         -0.0360   -0.0787    0.0983 C.3       1 <0>         0.0471
      3 H1          0.3519   -0.5898    0.9794 H         1 <0>         0.1258
      4 C3         -1.5249   -0.3937   -0.0598 C.3       1 <0>        -0.0062
      5 N1         -1.6976   -1.8312   -0.3085 N.4       1 <0>        -0.3842
      6 C4         -1.2880   -2.5886    0.8828 C.3       1 <0>        -0.0255
      7 C5         -1.5095   -4.0589    0.6406 C.2       1 <0>         0.5074
      8 O1         -0.7982   -4.8727    1.1897 O.2       1 <0>        -0.4269
      9 N2         -2.4902   -4.4758   -0.1804 N.am      1 <0>        -0.6735
     10 C6         -3.2921   -3.5947   -0.8052 C.2       1 <0>         0.5061
     11 O2         -4.1671   -3.9954   -1.5423 O.2       1 <0>        -0.4268
     12 C7         -3.1111   -2.1138   -0.5959 C.3       1 <0>        -0.0246
     13 N3          0.6906   -0.5371   -1.0933 N.3       1 <0>        -0.5501
     14 C8          2.1442   -0.4911   -0.8743 C.3       1 <0>         0.0287
     15 C9          2.8488   -0.9786   -2.1134 C.2       1 <0>         0.5255
     16 O3          3.9327   -1.5129   -2.0165 O.2       1 <0>        -0.4722
     17 N4          2.2877   -0.8266   -3.3257 N.am      1 <0>        -0.6733
     18 C10         1.0831   -0.2475   -3.4715 C.2       1 <0>         0.5260
     19 O4          0.6019   -0.1338   -4.5784 O.2       1 <0>        -0.4776
     20 C11         0.3254    0.2615   -2.2730 C.3       1 <0>         0.0090
     21 H2          1.2121    1.6554    0.3732 H         1 <0>         0.0857
     22 H3         -0.2365    1.9421   -0.6206 H         1 <0>         0.0785
     23 H4         -0.3878    1.7712    1.1447 H         1 <0>         0.0894
     24 H5         -2.0537   -0.1166    0.8521 H         1 <0>         0.1555
     25 H6         -1.9286    0.1714   -0.8999 H         1 <0>         0.1461
     26 H7         -0.2319   -2.4081    1.0831 H         1 <0>         0.1802
     27 H8         -1.8809   -2.2678    1.7393 H         1 <0>         0.1778
     28 H9         -2.6213   -5.4261   -0.3239 H         1 <0>         0.4411
     29 H10        -3.7252   -1.7875    0.2434 H         1 <0>         0.1784
     30 H11        -3.4128   -1.5797   -1.4969 H         1 <0>         0.1821
     31 H12         2.4481    0.5339   -0.6622 H         1 <0>         0.1044
     32 H13         2.4057   -1.1308   -0.0313 H         1 <0>         0.1387
     33 H14         2.7619   -1.1409   -4.1114 H         1 <0>         0.4240
     34 H15        -0.7457    0.1732   -2.4549 H         1 <0>         0.1266
     35 H16         0.5807    1.3067   -2.0983 H         1 <0>         0.1101
     36 H17        -1.1313   -2.1076   -1.0965 H         1 <0>         0.4417
@<TRIPOS>BOND
     1    1    2 1
     2    1   21 1
     3    1   22 1
     4    1   23 1
     5    2    3 1
     6    2    4 1
     7    2   13 1
     8    4    5 1
     9    4   24 1
    10    4   25 1
    11    5   12 1
    12    5    6 1
    13    5   36 1
    14    6    7 1
    15    6   26 1
    16    6   27 1
    17    7    8 2
    18    7    9 am
    19    9   10 am
    20    9   28 1
    21   10   11 2
    22   10   12 1
    23   12   29 1
    24   12   30 1
    25   13   20 1
    26   13   14 1
    27   14   15 1
    28   14   31 1
    29   14   32 1
    30   15   16 2
    31   15   17 am
    32   17   18 am
    33   17   33 1
    34   18   19 2
    35   18   20 1
    36   20   34 1
    37   20   35 1
@<TRIPOS>MOLECULE
ZINC00057464
   30    31     0     0     0
SMALL
USER_CHARGES

@<TRIPOS>ATOM
      1 C1         -0.0187    1.5258    0.0104 C.3       1 <0>        -0.1415
      2 C2          0.0021   -0.0041    0.0020 C.3       1 <0>        -0.0814
      3 C3          0.7309   -0.5033    1.2229 C.ar      1 <0>         0.2684
      4 C4          2.1076   -0.7142    1.1859 C.ar      1 <0>        -0.2868
      5 C5          2.7415   -1.1805    2.3524 C.ar      1 <0>         0.4973
      6 N1          2.0075   -1.4004    3.4372 N.ar      1 <0>        -0.6305
      7 C6          0.7005   -1.1855    3.4254 C.ar      1 <0>         0.6107
      8 N2          0.0727   -0.7418    2.3457 N.ar      1 <0>        -0.6025
      9 N3         -0.0299   -1.4263    4.5753 N.pl3     1 <0>        -0.8186
     10 N4          4.1063   -1.4066    2.3689 N.pl3     1 <0>        -0.8307
     11 C7          2.8842   -0.4545   -0.0502 C.ar      1 <0>        -0.0061
     12 C8          2.6528   -1.2161   -1.1945 C.ar      1 <0>        -0.0980
     13 C9          3.3779   -0.9701   -2.3425 C.ar      1 <0>        -0.1043
     14 C10         4.3342    0.0308   -2.3589 C.ar      1 <0>        -0.0374
     15 C11         4.5679    0.7901   -1.2251 C.ar      1 <0>        -0.1042
     16 C12         3.8442    0.5559   -0.0737 C.ar      1 <0>        -0.1060
     17 Cl1         5.2438    0.3344   -3.8059 Cl        1 <0>        -0.0689
     18 H1          1.0039    1.9031    0.0027 H         1 <0>         0.0561
     19 H2         -0.5459    1.8868   -0.8726 H         1 <0>         0.0657
     20 H3         -0.5289    1.8773    0.9072 H         1 <0>         0.0593
     21 H4         -1.0205   -0.3814    0.0098 H         1 <0>         0.0875
     22 H5          0.5123   -0.3556   -0.8948 H         1 <0>         0.0875
     23 H6          0.4159   -1.7477    5.3746 H         1 <0>         0.4141
     24 H7         -0.9878   -1.2737    4.5823 H         1 <0>         0.4160
     25 H8          4.6346   -1.2437    1.5719 H         1 <0>         0.4128
     26 H9          4.5349   -1.7282    3.1775 H         1 <0>         0.4080
     27 H10         1.9075   -1.9977   -1.1826 H         1 <0>         0.1325
     28 H11         3.1993   -1.5597   -3.2296 H         1 <0>         0.1355
     29 H12         5.3153    1.5695   -1.2429 H         1 <0>         0.1350
     30 H13         4.0244    1.1515    0.8090 H         1 <0>         0.1304
@<TRIPOS>BOND
     1    1    2 1
     2    1   18 1
     3    1   19 1
     4    1   20 1
     5    2    3 1
     6    2   21 1
     7    2   22 1
     8    3    8 ar
     9    3    4 ar
    10    4    5 ar
    11    4   11 1
    12    5    6 ar
    13    5   10 1
    14    6    7 ar
    15    7    8 ar
    16    7    9 1
    17    9   23 1
    18    9   24 1
    19   10   25 1
    20   10   26 1
    21   11   16 ar
    22   11   12 ar
    23   12   13 ar
    24   12   27 1
    25   13   14 ar
    26   13   28 1
    27   14   15 ar
    28   14   17 1
    29   15   16 ar
    30   15   29 1
    31   16   30 1
@<TRIPOS>MOLECULE
ZINC53682936
   82    85     0     0     0
SMALL
USER_CHARGES

@<TRIPOS>ATOM
      1 C1          0.0181    1.7098    0.2379 C.3       1 <0>        -0.1858
      2 C2          0.0316    0.1812    0.1729 C.3       1 <0>         0.1815
      3 C3          0.7218   -0.2583   -1.0914 C.ar      1 <0>        -0.0679
      4 C4          0.7724    0.5856   -2.1808 C.ar      1 <0>        -0.1325
      5 C5          1.3943    0.1796   -3.3500 C.ar      1 <0>        -0.0721
      6 C6          1.9681   -1.0737   -3.4391 C.ar      1 <0>        -0.1501
      7 C7          1.9311   -1.9335   -2.3512 C.ar      1 <0>         0.1637
      8 C8          1.3092   -1.5219   -1.1660 C.ar      1 <0>        -0.1725
      9 C9          1.2880   -2.4097    0.0137 C.2       1 <0>         0.4277
     10 O1          1.5798   -3.5874   -0.0918 O.2       1 <0>        -0.4103
     11 C10         0.9201   -1.8634    1.2792 C.2       1 <0>        -0.1986
     12 C11         0.7227   -2.6982    2.3035 C.2       1 <0>         0.1473
     13 C12         0.3464   -2.2547    3.6915 C.3       1 <0>         0.1083
     14 C13         0.6253   -0.7580    3.8337 C.3       1 <0>        -0.0904
     15 H1          1.7037   -0.6082    3.7824 H         1 <0>         0.1097
     16 C14        -0.0128   -0.0144    2.6637 C.3       1 <0>        -0.1074
     17 C15         0.7648   -0.3706    1.3935 C.3       1 <0>        -0.0188
     18 H2          1.7528    0.0862    1.4513 H         1 <0>         0.1058
     19 C16         0.1371   -0.2207    5.1647 C.3       1 <0>         0.0361
     20 H3          0.1996    0.8674    5.1510 H         1 <0>         0.1516
     21 C17        -1.2776   -0.6227    5.4557 C.2       1 <0>         0.3197
     22 C18        -1.8768   -1.6927    4.8390 C.2       1 <0>        -0.4849
     23 C19        -1.1461   -2.4726    3.8551 C.2       1 <0>         0.3947
     24 O2         -1.7334   -3.2755    3.1596 O.2       1 <0>        -0.4813
     25 C20        -3.2592   -2.0584    5.1866 C.2       1 <0>         0.5901
     26 O3         -3.9074   -1.3477    5.9311 O.2       1 <0>        -0.5235
     27 N1         -3.8070   -3.1808    4.6801 N.am      1 <0>        -0.7463
     28 C21        -5.1438   -3.6008    5.1076 C.3       1 <0>         0.2218
     29 N2         -6.1425   -3.1020    4.1527 N.4       1 <0>        -0.5296
     30 C22        -7.4830   -3.5232    4.5813 C.3       1 <0>        -0.0045
     31 C23        -8.5231   -3.0037    3.5868 C.3       1 <0>        -0.1508
     32 C24        -9.9192   -3.4423    4.0332 C.3       1 <0>        -0.1295
     33 C25       -10.9594   -2.9228    3.0386 C.3       1 <0>        -0.1280
     34 C26       -12.3555   -3.3615    3.4851 C.3       1 <0>        -0.0519
     35 H4        -12.5301   -3.0309    4.5089 H         1 <0>         0.1355
     36 C27       -13.3893   -2.7483    2.5760 C.2       1 <0>         0.4862
     37 O4        -14.0124   -3.4520    1.7994 O.co2     1 <0>        -0.6676
     38 O5        -13.6026   -1.5486    2.6172 O.co2     1 <0>        -0.6314
     39 N3        -12.4529   -4.8258    3.4199 N.4       1 <0>        -0.6142
     40 O6         -1.9818    0.0873    6.3495 O.3       1 <0>        -0.5508
     41 N4          1.0054   -0.7338    6.2328 N.4       1 <0>        -0.3736
     42 C28         2.3608   -0.1930    6.0642 C.3       1 <0>        -0.0512
     43 C29         0.4723   -0.3209    7.5380 C.3       1 <0>        -0.0507
     44 O7          1.0713   -3.0035    4.6692 O.3       1 <0>        -0.5533
     45 O8          0.8692   -4.0194    2.0798 O.3       1 <0>        -0.4519
     46 O9          2.4931   -3.1656   -2.4352 O.3       1 <0>        -0.4777
     47 O10        -1.3124   -0.3043    0.1684 O.3       1 <0>        -0.5437
     48 H5          1.0425    2.0821    0.2469 H         1 <0>         0.0756
     49 H6         -0.5048    2.1059   -0.6326 H         1 <0>         0.0729
     50 H7         -0.4929    2.0303    1.1458 H         1 <0>         0.0750
     51 H8          0.3249    1.5668   -2.1224 H         1 <0>         0.1375
     52 H9          1.4306    0.8475   -4.1979 H         1 <0>         0.1371
     53 H10         2.4455   -1.3846   -4.3566 H         1 <0>         0.1395
     54 H11        -1.0534   -0.3206    2.5563 H         1 <0>         0.1009
     55 H12         0.0393    1.0603    2.8380 H         1 <0>         0.0980
     56 H13        -3.3161   -3.7106    4.0326 H         1 <0>         0.4227
     57 H14        -5.1883   -4.6893    5.1444 H         1 <0>         0.1394
     58 H15        -5.3530   -3.1950    6.0973 H         1 <0>         0.1449
     59 H16        -6.1014   -2.0945    4.1186 H         1 <0>         0.4297
     60 H17        -7.5274   -4.6117    4.6182 H         1 <0>         0.1298
     61 H18        -7.6922   -3.1173    5.5711 H         1 <0>         0.1332
     62 H19        -8.4787   -1.9152    3.5499 H         1 <0>         0.0959
     63 H20        -8.3139   -3.4096    2.5970 H         1 <0>         0.0910
     64 H21        -9.9637   -4.5308    4.0700 H         1 <0>         0.0651
     65 H22       -10.1285   -3.0365    5.0229 H         1 <0>         0.0875
     66 H23       -10.9150   -1.8344    3.0018 H         1 <0>         0.1144
     67 H24       -10.7502   -3.3287    2.0489 H         1 <0>         0.0854
     68 H25       -12.2913   -5.1318    2.4721 H         1 <0>         0.4324
     69 H26       -11.7607   -5.2363    4.0285 H         1 <0>         0.4090
     70 H27         2.3389    0.8891    6.1936 H         1 <0>         0.1218
     71 H28         3.0233   -0.6346    6.8086 H         1 <0>         0.1251
     72 H29         2.7257   -0.4322    5.0654 H         1 <0>         0.1204
     73 H30         1.1165   -0.7016    8.3305 H         1 <0>         0.1167
     74 H31         0.4382    0.7674    7.5887 H         1 <0>         0.1217
     75 H32        -0.5334   -0.7222    7.6631 H         1 <0>         0.1356
     76 H33         0.9130   -3.9567    4.6313 H         1 <0>         0.4070
     77 H34         1.6035   -4.4212    2.5639 H         1 <0>         0.3921
     78 H35         3.4233   -3.1923   -2.1723 H         1 <0>         0.3951
     79 H36        -1.8415    0.0095   -0.5777 H         1 <0>         0.3828
     80 H37       -13.3736   -5.1151    3.7143 H         1 <0>         0.4364
     81 H38        -5.9488   -3.4778    3.2365 H         1 <0>         0.4227
     82 H39         1.0369   -1.7412    6.1859 H         1 <0>         0.4289
@<TRIPOS>BOND
     1    1    2 1
     2    1   48 1
     3    1   49 1
     4    1   50 1
     5    2   17 1
     6    2    3 1
     7    2   47 1
     8    3    8 ar
     9    3    4 ar
    10    4    5 ar
    11    4   51 1
    12    5    6 ar
    13    5   52 1
    14    6    7 ar
    15    6   53 1
    16    7    8 ar
    17    7   46 1
    18    8    9 1
    19    9   10 2
    20    9   11 1
    21   11   17 1
    22   11   12 2
    23   12   13 1
    24   12   45 1
    25   13   23 1
    26   13   14 1
    27   13   44 1
    28   14   15 1
    29   14   16 1
    30   14   19 1
    31   16   17 1
    32   16   54 1
    33   16   55 1
    34   17   18 1
    35   19   20 1
    36   19   21 1
    37   19   41 1
    38   21   22 2
    39   21   40 1
    40   22   23 1
    41   22   25 1
    42   23   24 2
    43   25   26 2
    44   25   27 am
    45   27   28 1
    46   27   56 1
    47   28   29 1
    48   28   57 1
    49   28   58 1
    50   29   30 1
    51   29   59 1
    52   29   81 1
    53   30   31 1
    54   30   60 1
    55   30   61 1
    56   31   32 1
    57   31   62 1
    58   31   63 1
    59   32   33 1
    60   32   64 1
    61   32   65 1
    62   33   34 1
    63   33   66 1
    64   33   67 1
    65   34   35 1
    66   34   36 1
    67   34   39 1
    68   36   37 2
    69   36   38 1
    70   39   68 1
    71   39   69 1
    72   39   80 1
    73   41   42 1
    74   41   43 1
    75   41   82 1
    76   42   70 1
    77   42   71 1
    78   42   72 1
    79   43   73 1
    80   43   74 1
    81   43   75 1
    82   44   76 1
    83   45   77 1
    84   46   78 1
    85   47   79 1
@<TRIPOS>MOLECULE
ZINC00967787
   49    52     0     0     0
SMALL
USER_CHARGES

@<TRIPOS>ATOM
      1 C1          0.3846    0.8375    0.1682 C.3       1 <0>        -0.1336
      2 C2          0.0849   -0.6393    0.1483 C.2       1 <0>         0.0469
      3 C3         -1.2521   -1.0851    0.0778 C.2       1 <0>        -0.1716
      4 C4         -1.5517   -2.4697    0.0572 C.2       1 <0>         0.2616
      5 C5         -0.5331   -3.3985    0.1062 C.2       1 <0>        -0.2653
      6 C6          0.8036   -2.9672    0.1771 C.2       1 <0>         0.2967
      7 C7          1.1004   -1.5354    0.1925 C.2       1 <0>        -0.0134
      8 F1          2.3805   -1.1081    0.2549 F         1 <0>        -0.1040
      9 N1          1.7938   -3.8577    0.2248 N.pl3     1 <0>        -0.5930
     10 C8          1.5116   -5.2983    0.3209 C.3       1 <0>         0.0779
     11 C9          2.3389   -5.8795    1.4722 C.3       1 <0>        -0.0199
     12 N2          3.7558   -5.5517    1.2697 N.4       1 <0>        -0.5070
     13 C10         3.9477   -4.0977    1.3402 C.3       1 <0>         0.0161
     14 H1          3.5586   -3.7252    2.2878 H         1 <0>         0.1443
     15 C11         3.2001   -3.4285    0.1767 C.3       1 <0>         0.0160
     16 C12         5.4398   -3.7745    1.2390 C.3       1 <0>        -0.1827
     17 N3         -2.8656   -2.8879   -0.0124 N.pl3     1 <0>        -0.4115
     18 C13        -3.8729   -2.0054   -0.0615 C.2       1 <0>         0.2427
     19 C14        -3.6352   -0.6412   -0.0442 C.2       1 <0>        -0.2912
     20 C15        -2.3064   -0.1574    0.0265 C.2       1 <0>         0.3603
     21 O1         -2.0572    1.1693    0.0447 O.3       1 <0>        -0.4243
     22 C16        -4.7600    0.3025   -0.0996 C.2       1 <0>         0.5379
     23 O2         -5.9101   -0.1126   -0.0488 O.co2     1 <0>        -0.6329
     24 O3         -4.5467    1.5036   -0.1966 O.co2     1 <0>        -0.6511
     25 C17        -3.1640   -4.3221   -0.0336 C.3       1 <0>         0.0050
     26 C18        -4.6092   -4.7390   -0.3138 C.3       1 <0>        -0.1643
     27 C19        -4.0320   -4.8798    1.0962 C.3       1 <0>        -0.1643
     28 H2          1.4628    0.9888    0.2195 H         1 <0>         0.0824
     29 H3         -0.0044    1.2994   -0.7393 H         1 <0>         0.1064
     30 H4         -0.0880    1.2924    1.0387 H         1 <0>         0.1049
     31 H5         -0.7615   -4.4540    0.0906 H         1 <0>         0.1590
     32 H6          0.4507   -5.4513    0.5185 H         1 <0>         0.1347
     33 H7          1.7878   -5.7887   -0.6126 H         1 <0>         0.1074
     34 H8          1.9985   -5.4532    2.4158 H         1 <0>         0.1387
     35 H9          2.2164   -6.9623    1.4973 H         1 <0>         0.1529
     36 H10         4.3087   -5.9978    1.9862 H         1 <0>         0.4353
     37 H11         3.6438   -3.7333   -0.7711 H         1 <0>         0.1032
     38 H12         3.2560   -2.3447    0.2789 H         1 <0>         0.1914
     39 H13         5.8287   -4.1468    0.2913 H         1 <0>         0.0861
     40 H14         5.5821   -2.6951    1.2913 H         1 <0>         0.1129
     41 H15         5.9715   -4.2514    2.0624 H         1 <0>         0.0905
     42 H16        -4.8898   -2.3651   -0.1159 H         1 <0>         0.2086
     43 H17        -2.3711   -4.9615   -0.4217 H         1 <0>         0.1567
     44 H18        -5.3380   -3.9462   -0.4824 H         1 <0>         0.1204
     45 H19        -4.7674   -5.6528   -0.8865 H         1 <0>         0.1299
     46 H20        -3.8105   -5.8863    1.4511 H         1 <0>         0.1240
     47 H21        -4.3811   -4.1797    1.8552 H         1 <0>         0.1141
     48 H22         4.0509   -5.8852    0.3643 H         1 <0>         0.4282
     49 H23        -2.8517    1.7180    0.0972 H         1 <0>         0.4369
@<TRIPOS>BOND
     1    1    2 1
     2    1   28 1
     3    1   29 1
     4    1   30 1
     5    2    7 2
     6    2    3 1
     7    3   20 2
     8    3    4 1
     9    4    5 2
    10    4   17 1
    11    5    6 1
    12    5   31 1
    13    6    7 1
    14    6    9 2
    15    7    8 1
    16    9   15 1
    17    9   10 1
    18   10   11 1
    19   10   32 1
    20   10   33 1
    21   11   12 1
    22   11   34 1
    23   11   35 1
    24   12   13 1
    25   12   36 1
    26   12   48 1
    27   13   14 1
    28   13   15 1
    29   13   16 1
    30   15   37 1
    31   15   38 1
    32   16   39 1
    33   16   40 1
    34   16   41 1
    35   17   18 1
    36   17   25 1
    37   18   19 2
    38   18   42 1
    39   19   20 1
    40   19   22 1
    41   20   21 1
    42   21   49 1
    43   22   23 2
    44   22   24 1
    45   25   27 1
    46   25   26 1
    47   25   43 1
    48   26   27 1
    49   26   44 1
    50   26   45 1
    51   27   46 1
    52   27   47 1
@<TRIPOS>MOLECULE
ZINC01078622
   29    30     0     0     0
SMALL
USER_CHARGES

@<TRIPOS>ATOM
      1 C1         -0.0162    1.3468    0.0094 C.2       1 <0>         0.4561
      2 N1          1.1088    2.0171    0.0023 N.2       1 <0>        -0.5995
      3 C2          2.2838    1.3716   -0.0123 C.2       1 <0>         0.6317
      4 N2          2.3216    0.0465   -0.0202 N.2       1 <0>        -0.6398
      5 C3          1.1841   -0.6540   -0.0131 C.2       1 <0>         0.6598
      6 O1          1.2141   -1.8729   -0.0203 O.2       1 <0>        -0.5186
      7 N3          0.0021   -0.0041    0.0020 N.am      1 <0>        -0.5552
      8 C4         -1.2538   -0.7583    0.0104 C.3       1 <0>         0.3015
      9 H1         -2.1003   -0.0812    0.1240 H         1 <0>         0.1288
     10 C5         -1.3952   -1.5819   -1.2944 C.3       1 <0>         0.0770
     11 H2         -0.4327   -1.9825   -1.6124 H         1 <0>         0.1067
     12 C6         -2.3462   -2.7166   -0.8252 C.3       1 <0>         0.0489
     13 H3         -2.1870   -3.6227   -1.4097 H         1 <0>         0.0943
     14 C7         -1.9097   -2.9246    0.6409 C.3       1 <0>         0.0603
     15 H4         -1.2269   -3.7717    0.7068 H         1 <0>         0.1055
     16 O2         -1.2457   -1.7284    1.0698 O.3       1 <0>        -0.3389
     17 C8         -3.1380   -3.1789    1.5171 C.3       1 <0>         0.0656
     18 O3         -2.7183   -3.4853    2.8482 O.3       1 <0>        -0.5615
     19 O4         -3.7110   -2.2995   -0.8995 O.3       1 <0>        -0.5400
     20 O5         -1.9938   -0.8034   -2.3325 O.3       1 <0>        -0.5381
     21 N4          3.4549    2.0873   -0.0197 N.pl3     1 <0>        -0.7890
     22 H5         -0.9587    1.8740    0.0258 H         1 <0>         0.2199
     23 H6         -3.7658   -2.2880    1.5300 H         1 <0>         0.0630
     24 H7         -3.7053   -4.0173    1.1129 H         1 <0>         0.0588
     25 H8         -3.4468   -3.6584    3.4603 H         1 <0>         0.3830
     26 H9         -4.3442   -2.9735   -0.6169 H         1 <0>         0.3834
     27 H10        -2.1020   -1.2785   -3.1678 H         1 <0>         0.3921
     28 H11         3.4308    3.0570   -0.0143 H         1 <0>         0.4209
     29 H12         4.3068    1.6235   -0.0303 H         1 <0>         0.4236
@<TRIPOS>BOND
     1    1    7 1
     2    1    2 2
     3    1   22 1
     4    2    3 1
     5    3    4 2
     6    3   21 1
     7    4    5 1
     8    5    6 2
     9    5    7 am
    10    7    8 1
    11    8    9 1
    12    8   16 1
    13    8   10 1
    14   10   11 1
    15   10   12 1
    16   10   20 1
    17   12   13 1
    18   12   14 1
    19   12   19 1
    20   14   15 1
    21   14   16 1
    22   14   17 1
    23   17   18 1
    24   17   23 1
    25   17   24 1
    26   18   25 1
    27   19   26 1
    28   20   27 1
    29   21   28 1
    30   21   29 1
@<TRIPOS>MOLECULE
ZINC03861768
   29    30     0     0     0
SMALL
USER_CHARGES

@<TRIPOS>ATOM
      1 C1         -0.0162    1.3468    0.0094 C.2       1 <0>         0.4556
      2 N1          1.1088    2.0171    0.0023 N.2       1 <0>        -0.5977
      3 C2          2.2838    1.3716   -0.0123 C.2       1 <0>         0.6317
      4 N2          2.3216    0.0465   -0.0202 N.2       1 <0>        -0.6390
      5 C3          1.1841   -0.6540   -0.0131 C.2       1 <0>         0.6593
      6 O1          1.2141   -1.8729   -0.0203 O.2       1 <0>        -0.5147
      7 N3          0.0021   -0.0041    0.0020 N.am      1 <0>        -0.5538
      8 C4         -1.2538   -0.7583    0.0104 C.3       1 <0>         0.2963
      9 H1         -2.1010   -0.0820    0.1239 H         1 <0>         0.1270
     10 C5         -1.3944   -1.5832   -1.2882 C.3       1 <0>         0.0810
     11 H2         -0.4146   -1.7817   -1.7225 H         1 <0>         0.0933
     12 C6         -2.0589   -2.8995   -0.8267 C.3       1 <0>         0.0521
     13 H3         -1.4075   -3.7489   -1.0329 H         1 <0>         0.0882
     14 C7         -2.2411   -2.7143    0.6961 C.3       1 <0>         0.0535
     15 H4         -3.2407   -2.3394    0.9158 H         1 <0>         0.0967
     16 O2         -1.2456   -1.7367    1.0727 O.3       1 <0>        -0.3346
     17 C8         -1.9968   -4.0364    1.4264 C.3       1 <0>         0.0810
     18 O3         -2.2831   -3.8724    2.8168 O.3       1 <0>        -0.5651
     19 O4         -3.3242   -3.0733   -1.4677 O.3       1 <0>        -0.5431
     20 O5         -2.2279   -0.9007   -2.2271 O.3       1 <0>        -0.5417
     21 N4          3.4549    2.0873   -0.0197 N.pl3     1 <0>        -0.7882
     22 H5         -0.9587    1.8740    0.0258 H         1 <0>         0.2213
     23 H6         -2.6459   -4.8067    1.0102 H         1 <0>         0.0645
     24 H7         -0.9553   -4.3329    1.3024 H         1 <0>         0.0638
     25 H8         -2.1497   -4.6727    3.3429 H         1 <0>         0.3854
     26 H9         -3.7854   -3.8845   -1.2142 H         1 <0>         0.3870
     27 H10        -2.3504   -1.3743   -3.0612 H         1 <0>         0.3948
     28 H11         3.4308    3.0570   -0.0143 H         1 <0>         0.4212
     29 H12         4.3068    1.6235   -0.0303 H         1 <0>         0.4239
@<TRIPOS>BOND
     1    1    7 1
     2    1    2 2
     3    1   22 1
     4    2    3 1
     5    3    4 2
     6    3   21 1
     7    4    5 1
     8    5    6 2
     9    5    7 am
    10    7    8 1
    11    8    9 1
    12    8   16 1
    13    8   10 1
    14   10   11 1
    15   10   12 1
    16   10   20 1
    17   12   13 1
    18   12   14 1
    19   12   19 1
    20   14   15 1
    21   14   16 1
    22   14   17 1
    23   17   18 1
    24   17   23 1
    25   17   24 1
    26   18   25 1
    27   19   26 1
    28   20   27 1
    29   21   28 1
    30   21   29 1
@<TRIPOS>MOLECULE
ZINC03871094
   22    22     0     0     0
SMALL
USER_CHARGES

@<TRIPOS>ATOM
      1 C1         -0.0184    1.5028    0.0103 C.3       1 <0>        -0.1614
      2 C2          0.0021   -0.0041    0.0020 C.2       1 <0>         0.5145
      3 O1          0.0203   -0.6161    1.0490 O.2       1 <0>        -0.4666
      4 N1          0.0001   -0.6716   -1.1688 N.am      1 <0>        -0.6018
      5 C3          0.0189   -2.0622   -1.1765 C.cat     1 <0>         0.1949
      6 N2          0.0258   -2.8880   -2.2042 N.pl3     1 <0>        -0.2687
      7 N3          0.0435   -4.1424   -2.0528 N.2       1 <0>        -0.1605
      8 C4          0.0554   -4.6408   -0.8327 C.2       1 <0>        -0.3889
      9 S1          0.0464   -3.1323    0.1260 S.3       1 <0>         0.5518
     10 S2          0.0804   -6.3196   -0.2980 S.o2      1 <0>         2.5655
     11 O2         -1.2676   -6.6807   -0.0303 O.2       1 <0>        -1.0052
     12 O3          0.8893   -7.0293   -1.2260 O.2       1 <0>        -0.9988
     13 N4          0.8781   -6.3595    1.1527 N.2       1 <0>        -1.3054
     14 C5          0.0121   -2.3354   -3.5609 C.3       1 <0>         0.0402
     15 H1          1.0042    1.8801    0.0026 H         1 <0>         0.1198
     16 H2         -0.5455    1.8639   -0.8728 H         1 <0>         0.0982
     17 H3         -0.5286    1.8543    0.9071 H         1 <0>         0.1215
     18 H4          0.9990   -7.2027    1.6166 H         1 <0>         0.3502
     19 H5          1.0363   -2.1841   -3.9020 H         1 <0>         0.1199
     20 H6         -0.4951   -3.0296   -4.2309 H         1 <0>         0.1332
     21 H7         -0.5150   -1.3814   -3.5593 H         1 <0>         0.1105
     22 H8         -0.0145   -0.1822   -2.0061 H         1 <0>         0.4371
@<TRIPOS>BOND
     1    1    2 1
     2    1   15 1
     3    1   16 1
     4    1   17 1
     5    2    3 2
     6    2    4 am
     7    4    5 1
     8    4   22 1
     9    5    9 1
    10    5    6 2
    11    6    7 1
    12    6   14 1
    13    7    8 2
    14    8    9 1
    15    8   10 1
    16   10   11 2
    17   10   12 2
    18   10   13 1
    19   13   18 1
    20   14   19 1
    21   14   20 1
    22   14   21 1
@<TRIPOS>MOLECULE
ZINC05514900
   30    30     0     0     0
SMALL
USER_CHARGES
5-butyl-5-ethyl-hexahydropyrimidine-2,4,6-trione
@<TRIPOS>ATOM
      1 C1         -0.0366    1.0992   -2.4903 C.3       1 <0>        -0.1525
      2 C2         -0.7527    1.5927   -1.2315 C.3       1 <0>        -0.1190
      3 C3         -0.0127    1.0858    0.0080 C.3       1 <0>        -0.1258
      4 C4         -0.7288    1.5792    1.2668 C.3       1 <0>        -0.0909
      5 C5          0.0111    1.0724    2.5063 C.3       1 <0>        -0.1614
      6 C6          1.3706    1.7441    2.5521 C.2       1 <0>         0.5267
      7 O1          1.4744    2.9516    2.5849 O.3       1 <0>        -0.5556
      8 N1          2.4604    0.9475    2.5545 N.2       1 <0>        -0.7164
      9 C7          2.3629   -0.3863    2.5186 C.2       1 <0>         0.6690
     10 O2          3.3953   -1.0267    2.5241 O.2       1 <0>        -0.5981
     11 N2          1.2115   -1.0665    2.4765 N.am      1 <0>        -0.7106
     12 C8          0.0137   -0.4441    2.4674 C.2       1 <0>         0.5501
     13 O3         -1.0217   -1.0737    2.4299 O.2       1 <0>        -0.5371
     14 C9         -0.7761    1.5156    3.7411 C.3       1 <0>        -0.0959
     15 C10        -0.0638    1.0252    5.0032 C.3       1 <0>        -0.1561
     16 H1         -0.5686    1.4636   -3.3815 H         1 <0>         0.0505
     17 H2         -0.0218   -0.0007   -2.4963 H         1 <0>         0.0518
     18 H3          0.9954    1.4799   -2.4981 H         1 <0>         0.0551
     19 H4         -0.7675    2.6926   -1.2255 H         1 <0>         0.0620
     20 H5         -1.7847    1.2121   -1.2237 H         1 <0>         0.0587
     21 H6          0.0022   -0.0141    0.0019 H         1 <0>         0.0549
     22 H7          1.0193    1.4665    0.0002 H         1 <0>         0.0681
     23 H8         -0.7437    2.6791    1.2728 H         1 <0>         0.0798
     24 H9         -1.7608    1.1985    1.2746 H         1 <0>         0.0682
     25 H10         1.2230   -2.1661    2.4481 H         1 <0>         0.4116
     26 H11        -0.8411    2.6135    3.7599 H         1 <0>         0.0795
     27 H12        -1.7893    1.0890    3.7027 H         1 <0>         0.0682
     28 H13        -0.6298    1.3439    5.8909 H         1 <0>         0.0565
     29 H14         0.9493    1.4519    5.0416 H         1 <0>         0.0618
     30 H15         0.0012   -0.0727    4.9844 H         1 <0>         0.0471
@<TRIPOS>BOND
     1    1    2 1
     2    1   16 1
     3    1   17 1
     4    1   18 1
     5    2    3 1
     6    2   19 1
     7    2   20 1
     8    3    4 1
     9    3   21 1
    10    3   22 1
    11    4    5 1
    12    4   23 1
    13    4   24 1
    14    5   12 1
    15    5    6 1
    16    5   14 1
    17    6    7 1
    18    6    8 2
    19    8    9 1
    20    9   10 2
    21    9   11 am
    22   11   12 am
    23   11   25 1
    24   12   13 2
    25   14   15 1
    26   14   26 1
    27   14   27 1
    28   15   28 1
    29   15   29 1
    30   15   30 1
@<TRIPOS>MOLECULE
ZINC05514900
   30    30     0     0     0
SMALL
USER_CHARGES
5-butyl-5-ethyl-hexahydropyrimidine-2,4,6-trione
@<TRIPOS>ATOM
      1 C1         -0.0366    1.0992   -2.4903 C.3       1 <0>        -0.1525
      2 C2         -0.7527    1.5927   -1.2315 C.3       1 <0>        -0.1190
      3 C3         -0.0127    1.0858    0.0080 C.3       1 <0>        -0.1257
      4 C4         -0.7288    1.5792    1.2668 C.3       1 <0>        -0.0908
      5 C5          0.0111    1.0724    2.5063 C.3       1 <0>        -0.1609
      6 C6          1.3706    1.7441    2.5521 C.2       1 <0>         0.5516
      7 O1          1.4744    2.9516    2.5849 O.2       1 <0>        -0.5370
      8 N1          2.4604    0.9475    2.5545 N.am      1 <0>        -0.7112
      9 C7          2.3629   -0.3863    2.5186 C.2       1 <0>         0.6668
     10 O2          3.3953   -1.0267    2.5241 O.3       1 <0>        -0.5984
     11 N2          1.2115   -1.0665    2.4765 N.2       1 <0>        -0.7173
     12 C8          0.0137   -0.4441    2.4674 C.2       1 <0>         0.5276
     13 O3         -1.0217   -1.0737    2.4299 O.2       1 <0>        -0.5557
     14 C9         -0.7761    1.5156    3.7411 C.3       1 <0>        -0.0961
     15 C10        -0.0638    1.0252    5.0032 C.3       1 <0>        -0.1561
     16 H1         -0.5686    1.4636   -3.3815 H         1 <0>         0.0503
     17 H2         -0.0218   -0.0007   -2.4963 H         1 <0>         0.0554
     18 H3          0.9954    1.4799   -2.4981 H         1 <0>         0.0518
     19 H4         -0.7675    2.6926   -1.2255 H         1 <0>         0.0582
     20 H5         -1.7847    1.2121   -1.2237 H         1 <0>         0.0619
     21 H6          0.0022   -0.0141    0.0019 H         1 <0>         0.0703
     22 H7          1.0193    1.4665    0.0002 H         1 <0>         0.0538
     23 H8         -0.7437    2.6791    1.2728 H         1 <0>         0.0684
     24 H9         -1.7608    1.1985    1.2746 H         1 <0>         0.0790
     25 H10         3.4662    1.3916    2.5867 H         1 <0>         0.4123
     26 H11        -0.8411    2.6135    3.7599 H         1 <0>         0.0683
     27 H12        -1.7893    1.0890    3.7027 H         1 <0>         0.0795
     28 H13        -0.6298    1.3439    5.8909 H         1 <0>         0.0565
     29 H14         0.9493    1.4519    5.0416 H         1 <0>         0.0471
     30 H15         0.0012   -0.0727    4.9844 H         1 <0>         0.0619
@<TRIPOS>BOND
     1    1    2 1
     2    1   16 1
     3    1   17 1
     4    1   18 1
     5    2    3 1
     6    2   19 1
     7    2   20 1
     8    3    4 1
     9    3   21 1
    10    3   22 1
    11    4    5 1
    12    4   23 1
    13    4   24 1
    14    5   12 1
    15    5    6 1
    16    5   14 1
    17    6    7 2
    18    6    8 am
    19    8    9 1
    20    8   25 1
    21    9   10 1
    22    9   11 2
    23   11   12 1
    24   12   13 2
    25   14   15 1
    26   14   26 1
    27   14   27 1
    28   15   28 1
    29   15   29 1
    30   15   30 1
@<TRIPOS>MOLECULE
ZINC03830251
   29    30     0     0     0
SMALL
USER_CHARGES

@<TRIPOS>ATOM
      1 C1         -0.0162    1.3468    0.0094 C.2       1 <0>         0.4628
      2 N1          1.1088    2.0171    0.0023 N.2       1 <0>        -0.6058
      3 C2          2.2838    1.3716   -0.0123 C.2       1 <0>         0.6323
      4 N2          2.3216    0.0465   -0.0202 N.2       1 <0>        -0.6377
      5 C3          1.1841   -0.6540   -0.0131 C.2       1 <0>         0.6736
      6 O1          1.2141   -1.8729   -0.0203 O.2       1 <0>        -0.5318
      7 N3          0.0021   -0.0041    0.0020 N.am      1 <0>        -0.5408
      8 C4         -1.2538   -0.7583    0.0104 C.3       1 <0>         0.2999
      9 H1         -1.3122   -1.3869    0.8990 H         1 <0>         0.1235
     10 C5         -1.3722   -1.6198   -1.2664 C.3       1 <0>         0.0844
     11 H2         -1.0742   -2.6482   -1.0623 H         1 <0>         0.1016
     12 C6         -2.8732   -1.5525   -1.6268 C.3       1 <0>         0.0440
     13 H3         -3.3172   -2.5476   -1.6009 H         1 <0>         0.0917
     14 C7         -3.4840   -0.6583   -0.5251 C.3       1 <0>         0.0541
     15 H4         -3.8864   -1.2713    0.2814 H         1 <0>         0.0974
     16 O2         -2.3816    0.1423   -0.0433 O.3       1 <0>        -0.3571
     17 C8         -4.5792    0.2353   -1.1108 C.3       1 <0>         0.0801
     18 O3         -5.2095    0.9682   -0.0583 O.3       1 <0>        -0.5647
     19 O4         -3.0529   -0.9589   -2.9142 O.3       1 <0>        -0.5397
     20 O5         -0.5768   -1.0687   -2.3179 O.3       1 <0>        -0.5330
     21 N4          3.4549    2.0873   -0.0197 N.pl3     1 <0>        -0.7908
     22 H5         -0.9587    1.8740    0.0258 H         1 <0>         0.2196
     23 H6         -4.1376    0.9311   -1.8242 H         1 <0>         0.0690
     24 H7         -5.3203   -0.3829   -1.6174 H         1 <0>         0.0645
     25 H8         -5.9159    1.5570   -0.3574 H         1 <0>         0.3869
     26 H9         -3.9771   -0.8917   -3.1908 H         1 <0>         0.3826
     27 H10        -0.6142   -1.5704   -3.1437 H         1 <0>         0.3906
     28 H11         3.4308    3.0570   -0.0143 H         1 <0>         0.4203
     29 H12         4.3068    1.6235   -0.0303 H         1 <0>         0.4227
@<TRIPOS>BOND
     1    1    7 1
     2    1    2 2
     3    1   22 1
     4    2    3 1
     5    3    4 2
     6    3   21 1
     7    4    5 1
     8    5    6 2
     9    5    7 am
    10    7    8 1
    11    8    9 1
    12    8   16 1
    13    8   10 1
    14   10   11 1
    15   10   12 1
    16   10   20 1
    17   12   13 1
    18   12   14 1
    19   12   19 1
    20   14   15 1
    21   14   16 1
    22   14   17 1
    23   17   18 1
    24   17   23 1
    25   17   24 1
    26   18   25 1
    27   19   26 1
    28   20   27 1
    29   21   28 1
    30   21   29 1
@<TRIPOS>MOLECULE
ZINC03830252
   29    30     0     0     0
SMALL
USER_CHARGES

@<TRIPOS>ATOM
      1 C1         -0.0162    1.3468    0.0094 C.2       1 <0>         0.4544
      2 N1          1.1088    2.0171    0.0023 N.2       1 <0>        -0.6028
      3 C2          2.2838    1.3716   -0.0123 C.2       1 <0>         0.6291
      4 N2          2.3216    0.0465   -0.0202 N.2       1 <0>        -0.6364
      5 C3          1.1841   -0.6540   -0.0131 C.2       1 <0>         0.6520
      6 O1          1.2141   -1.8729   -0.0203 O.2       1 <0>        -0.4925
      7 N3          0.0021   -0.0041    0.0020 N.am      1 <0>        -0.5566
      8 C4         -1.2538   -0.7583    0.0104 C.3       1 <0>         0.3042
      9 H1         -1.3159   -1.3883    0.8977 H         1 <0>         0.1241
     10 C5         -1.3858   -1.6129   -1.2760 C.3       1 <0>         0.0825
     11 H2         -0.9873   -1.0802   -2.1394 H         1 <0>         0.0865
     12 C6         -2.9196   -1.7867   -1.3938 C.3       1 <0>         0.0452
     13 H3         -3.2273   -2.7483   -0.9829 H         1 <0>         0.0985
     14 C7         -3.4964   -0.6314   -0.5528 C.3       1 <0>         0.0567
     15 H4         -4.0685   -1.0319    0.2841 H         1 <0>         0.0985
     16 O2         -2.3848    0.1365   -0.0580 O.3       1 <0>        -0.3558
     17 C8         -4.3957    0.2478   -1.4241 C.3       1 <0>         0.0800
     18 O3         -5.0171    1.2460   -0.6120 O.3       1 <0>        -0.5657
     19 O4         -3.3328   -1.6714   -2.7569 O.3       1 <0>        -0.5501
     20 O5         -0.7393   -2.8773   -1.1168 O.3       1 <0>        -0.5166
     21 N4          3.4549    2.0873   -0.0197 N.pl3     1 <0>        -0.7897
     22 H5         -0.9587    1.8740    0.0258 H         1 <0>         0.2225
     23 H6         -3.7952    0.7294   -2.1959 H         1 <0>         0.0656
     24 H7         -5.1628   -0.3687   -1.8926 H         1 <0>         0.0637
     25 H8         -5.6030    1.8410   -1.0996 H         1 <0>         0.3864
     26 H9         -4.2854   -1.7722   -2.8890 H         1 <0>         0.3866
     27 H10        -0.7946   -3.4481   -1.8954 H         1 <0>         0.3858
     28 H11         3.4308    3.0570   -0.0143 H         1 <0>         0.4206
     29 H12         4.3068    1.6235   -0.0303 H         1 <0>         0.4233
@<TRIPOS>BOND
     1    1    7 1
     2    1    2 2
     3    1   22 1
     4    2    3 1
     5    3    4 2
     6    3   21 1
     7    4    5 1
     8    5    6 2
     9    5    7 am
    10    7    8 1
    11    8    9 1
    12    8   16 1
    13    8   10 1
    14   10   11 1
    15   10   12 1
    16   10   20 1
    17   12   13 1
    18   12   14 1
    19   12   19 1
    20   14   15 1
    21   14   16 1
    22   14   17 1
    23   17   18 1
    24   17   23 1
    25   17   24 1
    26   18   25 1
    27   19   26 1
    28   20   27 1
    29   21   28 1
    30   21   29 1
@<TRIPOS>MOLECULE
ZINC21984082
   65    67     0     0     0
SMALL
USER_CHARGES

@<TRIPOS>ATOM
      1 C1          2.3409   -2.4577    2.5231 C.3       1 <0>        -0.1059
      2 C2          1.5309   -2.2386    1.2714 C.ar      1 <0>        -0.0688
      3 C3          1.7637   -3.0143    0.1526 C.ar      1 <0>        -0.1146
      4 C4          1.0212   -2.8135   -0.9965 C.ar      1 <0>        -0.1083
      5 C5          0.0433   -1.8364   -1.0295 C.ar      1 <0>        -0.1140
      6 C6         -0.1947   -1.0576    0.0860 C.ar      1 <0>        -0.0896
      7 C7          0.5457   -1.2603    1.2433 C.ar      1 <0>         0.1251
      8 N1          0.3031   -0.4769    2.3771 N.am      1 <0>        -0.6700
      9 C8          0.0323   -1.0666    3.5583 C.2       1 <0>         0.5128
     10 O1         -0.0670   -2.2735    3.6249 O.2       1 <0>        -0.5039
     11 C9         -0.1471   -0.2263    4.7964 C.3       1 <0>         0.0358
     12 N2         -0.4315   -1.0989    5.9434 N.3       1 <0>        -0.5212
     13 C10        -1.7321   -1.7656    5.7883 C.3       1 <0>         0.0212
     14 C11        -1.9630   -2.7082    6.9715 C.3       1 <0>        -0.0042
     15 N3         -1.9336   -1.9397    8.2229 N.4       1 <0>        -0.3818
     16 C12        -0.6203   -1.2998    8.3758 C.3       1 <0>        -0.0004
     17 C13        -0.3782   -0.3455    7.2043 C.3       1 <0>         0.0266
     18 C14        -2.1733   -2.8420    9.3571 C.3       1 <0>        -0.0414
     19 C15        -3.6007   -3.3876    9.2819 C.3       1 <0>         0.0865
     20 H1         -3.7295   -3.9415    8.3519 H         1 <0>         0.1345
     21 C16        -3.8541   -4.3186   10.4693 C.3       1 <0>         0.0295
     22 O2         -5.1443   -4.9185   10.3373 O.3       1 <0>        -0.2912
     23 C17        -5.5278   -5.7799   11.3173 C.ar      1 <0>         0.0868
     24 C18        -4.6831   -6.0373   12.3852 C.ar      1 <0>        -0.1715
     25 C19        -5.0747   -6.9128   13.3808 C.ar      1 <0>        -0.1178
     26 C20        -6.3082   -7.5336   13.3138 C.ar      1 <0>        -0.1052
     27 C21        -7.1555   -7.2816   12.2510 C.ar      1 <0>        -0.1710
     28 C22        -6.7717   -6.4004   11.2529 C.ar      1 <0>         0.1075
     29 O3         -7.6065   -6.1468   10.2097 O.3       1 <0>        -0.3081
     30 C23        -8.8674   -6.8193   10.2095 C.3       1 <0>         0.0240
     31 O4         -4.5286   -2.3015    9.3217 O.3       1 <0>        -0.5422
     32 C24        -1.2602    0.0075    0.0490 C.3       1 <0>        -0.1113
     33 H2          1.9119   -3.2812    3.0940 H         1 <0>         0.0813
     34 H3          3.3688   -2.6996    2.2530 H         1 <0>         0.0646
     35 H4          2.3279   -1.5509    3.1277 H         1 <0>         0.0536
     36 H5          2.5267   -3.7783    0.1752 H         1 <0>         0.1275
     37 H6          1.2056   -3.4210   -1.8702 H         1 <0>         0.1282
     38 H7         -0.5347   -1.6817   -1.9286 H         1 <0>         0.1287
     39 H8          0.3298    0.4906    2.3128 H         1 <0>         0.4087
     40 H9          0.7652    0.3389    4.9872 H         1 <0>         0.1201
     41 H10        -0.9781    0.4637    4.6499 H         1 <0>         0.0790
     42 H11        -2.5236   -1.0168    5.7600 H         1 <0>         0.0591
     43 H12        -1.7390   -2.3379    4.8607 H         1 <0>         0.1408
     44 H13        -2.9335   -3.1931    6.8657 H         1 <0>         0.1371
     45 H14        -1.1790   -3.4651    6.9915 H         1 <0>         0.1411
     46 H15        -0.5953   -0.7405    9.3111 H         1 <0>         0.1375
     47 H16         0.1569   -2.0639    8.3886 H         1 <0>         0.1401
     48 H17         0.6026    0.1182    7.3097 H         1 <0>         0.1267
     49 H18        -1.1474    0.4268    7.1993 H         1 <0>         0.0637
     50 H19        -1.4654   -3.6699    9.3186 H         1 <0>         0.1461
     51 H20        -2.0422   -2.2949   10.2907 H         1 <0>         0.1391
     52 H21        -3.0917   -5.0973   10.4896 H         1 <0>         0.0806
     53 H22        -3.8129   -3.7455   11.3955 H         1 <0>         0.0753
     54 H23        -3.7188   -5.5542   12.4395 H         1 <0>         0.1310
     55 H24        -4.4154   -7.1126   14.2126 H         1 <0>         0.1310
     56 H25        -6.6103   -8.2173   14.0934 H         1 <0>         0.1326
     57 H26        -8.1184   -7.7682   12.2009 H         1 <0>         0.1399
     58 H27        -9.4340   -6.5288    9.3248 H         1 <0>         0.1042
     59 H28        -8.7043   -7.8970   10.1988 H         1 <0>         0.0581
     60 H29        -9.4256   -6.5451   11.1047 H         1 <0>         0.0581
     61 H30        -4.4705   -1.7638   10.1233 H         1 <0>         0.3886
     62 H31        -2.1888   -0.3933    0.4556 H         1 <0>         0.0699
     63 H32        -0.9410    0.8617    0.6461 H         1 <0>         0.0610
     64 H33        -1.4216    0.3243   -0.9813 H         1 <0>         0.0729
     65 H34        -2.6519   -1.2314    8.1994 H         1 <0>         0.4252
@<TRIPOS>BOND
     1    1    2 1
     2    1   33 1
     3    1   34 1
     4    1   35 1
     5    2    7 ar
     6    2    3 ar
     7    3    4 ar
     8    3   36 1
     9    4    5 ar
    10    4   37 1
    11    5    6 ar
    12    5   38 1
    13    6    7 ar
    14    6   32 1
    15    7    8 1
    16    8    9 am
    17    8   39 1
    18    9   10 2
    19    9   11 1
    20   11   12 1
    21   11   40 1
    22   11   41 1
    23   12   17 1
    24   12   13 1
    25   13   14 1
    26   13   42 1
    27   13   43 1
    28   14   15 1
    29   14   44 1
    30   14   45 1
    31   15   16 1
    32   15   18 1
    33   15   65 1
    34   16   17 1
    35   16   46 1
    36   16   47 1
    37   17   48 1
    38   17   49 1
    39   18   19 1
    40   18   50 1
    41   18   51 1
    42   19   20 1
    43   19   21 1
    44   19   31 1
    45   21   22 1
    46   21   52 1
    47   21   53 1
    48   22   23 1
    49   23   28 ar
    50   23   24 ar
    51   24   25 ar
    52   24   54 1
    53   25   26 ar
    54   25   55 1
    55   26   27 ar
    56   26   56 1
    57   27   28 ar
    58   27   57 1
    59   28   29 1
    60   29   30 1
    61   30   58 1
    62   30   59 1
    63   30   60 1
    64   31   61 1
    65   32   62 1
    66   32   63 1
    67   32   64 1
@<TRIPOS>MOLECULE
ZINC21984084
   65    67     0     0     0
SMALL
USER_CHARGES

@<TRIPOS>ATOM
      1 C1          1.7177   -2.1258    2.1651 C.3       1 <0>        -0.1060
      2 C2          0.8031   -1.7405    1.0310 C.ar      1 <0>        -0.0687
      3 C3          0.8758   -2.4113   -0.1741 C.ar      1 <0>        -0.1146
      4 C4          0.0373   -2.0581   -1.2154 C.ar      1 <0>        -0.1083
      5 C5         -0.8768   -1.0331   -1.0537 C.ar      1 <0>        -0.1141
      6 C6         -0.9548   -0.3587    0.1491 C.ar      1 <0>        -0.0898
      7 C7         -0.1177   -0.7145    1.1985 C.ar      1 <0>         0.1252
      8 N1         -0.1982   -0.0371    2.4202 N.am      1 <0>        -0.6700
      9 C8         -0.3882   -0.7273    3.5621 C.2       1 <0>         0.5131
     10 O1         -0.5548   -1.9281    3.5244 O.2       1 <0>        -0.5047
     11 C9         -0.3938   -0.0070    4.8858 C.3       1 <0>         0.0357
     12 N2         -0.6182   -0.9740    5.9686 N.3       1 <0>        -0.5211
     13 C10        -1.9664   -1.5535    5.8862 C.3       1 <0>         0.0196
     14 C11        -2.1385   -2.5965    6.9926 C.3       1 <0>         0.0016
     15 N3         -1.9398   -1.9597    8.3012 N.4       1 <0>        -0.3819
     16 C12        -0.5809   -1.4074    8.3776 C.3       1 <0>        -0.0074
     17 C13        -0.3958   -0.3545    7.2827 C.3       1 <0>         0.0281
     18 C14        -2.1229   -2.9574    9.3638 C.3       1 <0>        -0.0417
     19 C15        -2.0395   -2.2703   10.7283 C.3       1 <0>         0.0868
     20 H1         -1.0995   -1.7235   10.8029 H         1 <0>         0.1335
     21 C16        -2.1053   -3.3246   11.8351 C.3       1 <0>         0.0289
     22 O2         -1.9108   -2.6963   13.1037 O.3       1 <0>        -0.2915
     23 C17        -1.9403   -3.4989   14.2012 C.ar      1 <0>         0.0868
     24 C18        -2.1462   -4.8618   14.0594 C.ar      1 <0>        -0.1714
     25 C19        -2.1755   -5.6763   15.1760 C.ar      1 <0>        -0.1176
     26 C20        -2.0002   -5.1341   16.4357 C.ar      1 <0>        -0.1051
     27 C21        -1.7948   -3.7751   16.5842 C.ar      1 <0>        -0.1710
     28 C22        -1.7581   -2.9540   15.4686 C.ar      1 <0>         0.1074
     29 O3         -1.5502   -1.6178   15.6125 O.3       1 <0>        -0.3082
     30 C23        -1.3711   -1.1287   16.9432 C.3       1 <0>         0.0239
     31 O4         -3.1323   -1.3608   10.8713 O.3       1 <0>        -0.5421
     32 C24        -1.9508    0.7586    0.3242 C.3       1 <0>        -0.1112
     33 H2          1.2979   -2.9800    2.6963 H         1 <0>         0.0812
     34 H3          2.6974   -2.3908    1.7677 H         1 <0>         0.0647
     35 H4          1.8193   -1.2852    2.8515 H         1 <0>         0.0537
     36 H5          1.5886   -3.2123   -0.3034 H         1 <0>         0.1276
     37 H6          0.0966   -2.5836   -2.1570 H         1 <0>         0.1283
     38 H7         -1.5301   -0.7593   -1.8690 H         1 <0>         0.1287
     39 H8         -0.1171    0.9292    2.4452 H         1 <0>         0.4089
     40 H9          0.5659    0.4882    5.0340 H         1 <0>         0.1205
     41 H10        -1.1909    0.7364    4.8916 H         1 <0>         0.0791
     42 H11        -2.7092   -0.7655    6.0104 H         1 <0>         0.0582
     43 H12        -2.0991   -2.0290    4.9144 H         1 <0>         0.1409
     44 H13        -3.1427   -3.0174    6.9421 H         1 <0>         0.1361
     45 H14        -1.4044   -3.3913    6.8601 H         1 <0>         0.1409
     46 H15        -0.4303   -0.9466    9.3539 H         1 <0>         0.1388
     47 H16         0.1452   -2.2082    8.2380 H         1 <0>         0.1408
     48 H17         0.6173    0.0449    7.3297 H         1 <0>         0.1269
     49 H18        -1.1127    0.4533    7.4299 H         1 <0>         0.0648
     50 H19        -3.0990   -3.4300    9.2541 H         1 <0>         0.1399
     51 H20        -1.3422   -3.7144    9.2899 H         1 <0>         0.1456
     52 H21        -3.0807   -3.8108   11.8162 H         1 <0>         0.0757
     53 H22        -1.3252   -4.0689   11.6748 H         1 <0>         0.0802
     54 H23        -2.2842   -5.2877   13.0766 H         1 <0>         0.1311
     55 H24        -2.3361   -6.7384   15.0641 H         1 <0>         0.1311
     56 H25        -2.0241   -5.7737   17.3056 H         1 <0>         0.1327
     57 H26        -1.6585   -3.3541   17.5694 H         1 <0>         0.1399
     58 H27        -1.2148   -0.0503   16.9160 H         1 <0>         0.1042
     59 H28        -2.2587   -1.3524   17.5351 H         1 <0>         0.0582
     60 H29        -0.5032   -1.6103   17.3936 H         1 <0>         0.0580
     61 H30        -4.0023   -1.7793   10.8153 H         1 <0>         0.3898
     62 H31        -2.8560    0.3687    0.7897 H         1 <0>         0.0695
     63 H32        -1.5203    1.5329    0.9591 H         1 <0>         0.0612
     64 H33        -2.1966    1.1822   -0.6496 H         1 <0>         0.0729
     65 H34        -2.6119   -1.2164    8.4189 H         1 <0>         0.4257
@<TRIPOS>BOND
     1    1    2 1
     2    1   33 1
     3    1   34 1
     4    1   35 1
     5    2    7 ar
     6    2    3 ar
     7    3    4 ar
     8    3   36 1
     9    4    5 ar
    10    4   37 1
    11    5    6 ar
    12    5   38 1
    13    6    7 ar
    14    6   32 1
    15    7    8 1
    16    8    9 am
    17    8   39 1
    18    9   10 2
    19    9   11 1
    20   11   12 1
    21   11   40 1
    22   11   41 1
    23   12   17 1
    24   12   13 1
    25   13   14 1
    26   13   42 1
    27   13   43 1
    28   14   15 1
    29   14   44 1
    30   14   45 1
    31   15   16 1
    32   15   18 1
    33   15   65 1
    34   16   17 1
    35   16   46 1
    36   16   47 1
    37   17   48 1
    38   17   49 1
    39   18   19 1
    40   18   50 1
    41   18   51 1
    42   19   20 1
    43   19   21 1
    44   19   31 1
    45   21   22 1
    46   21   52 1
    47   21   53 1
    48   22   23 1
    49   23   28 ar
    50   23   24 ar
    51   24   25 ar
    52   24   54 1
    53   25   26 ar
    54   25   55 1
    55   26   27 ar
    56   26   56 1
    57   27   28 ar
    58   27   57 1
    59   28   29 1
    60   29   30 1
    61   30   58 1
    62   30   59 1
    63   30   60 1
    64   31   61 1
    65   32   62 1
    66   32   63 1
    67   32   64 1
@<TRIPOS>MOLECULE
ZINC00538538
   37    38     0     0     0
SMALL
USER_CHARGES

@<TRIPOS>ATOM
      1 C1          2.4750   -0.3237    1.1368 C.3       1 <0>        -0.1113
      2 C2          1.2028   -0.8719    0.5434 C.ar      1 <0>        -0.0828
      3 C3          1.2404   -1.5713   -0.6469 C.ar      1 <0>        -0.1236
      4 C4          0.0735   -2.0750   -1.1918 C.ar      1 <0>        -0.1184
      5 C5         -1.1344   -1.8804   -0.5473 C.ar      1 <0>        -0.1227
      6 C6         -1.1790   -1.1815    0.6431 C.ar      1 <0>        -0.0710
      7 C7         -0.0080   -0.6792    1.1959 C.ar      1 <0>         0.1520
      8 N1         -0.0489    0.0237    2.4043 N.am      1 <0>        -0.7027
      9 C8         -0.2247   -0.6398    3.5642 C.2       1 <0>         0.5720
     10 O1         -0.2604   -1.8553    3.5700 O.2       1 <0>        -0.4997
     11 C9         -0.3738    0.1082    4.8261 C.ar      1 <0>        -0.2928
     12 C10        -0.3391    1.5053    4.8230 C.ar      1 <0>         0.0695
     13 C11        -0.4789    2.1986    6.0048 C.ar      1 <0>        -0.8026
     14 C12        -0.6542    1.5162    7.1996 C.ar      1 <0>         0.1061
     15 C13        -0.6898    0.1347    7.2164 C.ar      1 <0>        -0.2398
     16 C14        -0.5569   -0.5781    6.0347 C.ar      1 <0>         0.3441
     17 O2         -0.5978   -1.9340    6.0488 O.3       1 <0>        -0.6248
     18 Cl1        -0.8291    2.4024    8.6821 Cl        1 <0>        -0.0835
     19 S1         -0.4344    3.9600    5.9990 S.o2      1 <0>         2.7063
     20 O3          0.4743    4.3467    7.0207 O.2       1 <0>        -0.9694
     21 O4         -0.2718    4.3577    4.6445 O.2       1 <0>        -0.9866
     22 N2         -1.9308    4.4892    6.4713 N.pl3     1 <0>        -1.2508
     23 C15        -2.4959   -0.9695    1.3444 C.3       1 <0>        -0.1133
     24 H1          2.9198   -1.0699    1.7953 H         1 <0>         0.0712
     25 H2          3.1746   -0.0822    0.3365 H         1 <0>         0.0640
     26 H3          2.2509    0.5773    1.7077 H         1 <0>         0.0669
     27 H4          2.1822   -1.7247   -1.1528 H         1 <0>         0.1208
     28 H5          0.1056   -2.6213   -2.1229 H         1 <0>         0.1196
     29 H6         -2.0439   -2.2751   -0.9755 H         1 <0>         0.1208
     30 H7          0.0494    0.9887    2.4076 H         1 <0>         0.4003
     31 H8         -0.2025    2.0407    3.8950 H         1 <0>         0.1261
     32 H9         -0.8262   -0.3900    8.1505 H         1 <0>         0.1237
     33 H10        -2.0205    5.3317    6.9436 H         1 <0>         0.4133
     34 H11        -2.7176    3.9567    6.2757 H         1 <0>         0.4149
     35 H12        -2.7254   -1.8410    1.9576 H         1 <0>         0.0743
     36 H13        -2.4314   -0.0856    1.9789 H         1 <0>         0.0669
     37 H14        -3.2833   -0.8286    0.6040 H         1 <0>         0.0628
@<TRIPOS>BOND
     1    1    2 1
     2    1   24 1
     3    1   25 1
     4    1   26 1
     5    2    7 ar
     6    2    3 ar
     7    3    4 ar
     8    3   27 1
     9    4    5 ar
    10    4   28 1
    11    5    6 ar
    12    5   29 1
    13    6    7 ar
    14    6   23 1
    15    7    8 1
    16    8    9 am
    17    8   30 1
    18    9   10 2
    19    9   11 1
    20   11   16 ar
    21   11   12 ar
    22   12   13 ar
    23   12   31 1
    24   13   14 ar
    25   13   19 1
    26   14   15 ar
    27   14   18 1
    28   15   16 ar
    29   15   32 1
    30   16   17 1
    31   19   20 2
    32   19   21 2
    33   19   22 1
    34   22   33 1
    35   22   34 1
    36   23   35 1
    37   23   36 1
    38   23   37 1
@<TRIPOS>MOLECULE
ZINC22448696
   93    97     0     0     0
SMALL
USER_CHARGES
(2S)-1-[(2S,4R)-4-benzyl-2-hydroxy-5-[[(1S,2R)-2-hydroxyindan-1-yl]amino]-5-oxo-pentyl]-N-tert-butyl-4-(3-pyridylmethyl)piperazine-2-carboxamide
@<TRIPOS>ATOM
      1 C1         -5.5944    1.9794   -4.4560 C.3       1 <0>        -0.1645
      2 C2         -7.1095    1.8351   -4.3001 C.3       1 <0>         0.1776
      3 C3         -7.6485    0.9076   -5.3910 C.3       1 <0>        -0.1585
      4 C4         -7.7686    3.2099   -4.4280 C.3       1 <0>        -0.1675
      5 N1         -7.4132    1.2686   -2.9836 N.am      1 <0>        -0.7173
      6 C5         -7.0312    1.9180   -1.8661 C.2       1 <0>         0.5399
      7 O1         -6.4362    2.9714   -1.9503 O.2       1 <0>        -0.5099
      8 C6         -7.3436    1.3353   -0.5119 C.3       1 <0>         0.0317
      9 H1         -7.2584    0.2393   -0.5522 H         1 <0>         0.1222
     10 C7         -8.7499    1.7619   -0.0845 C.3       1 <0>         0.0057
     11 N2         -9.0367    1.2246    1.2530 N.4       1 <0>        -0.3956
     12 C8         -8.0593    1.7147    2.2349 C.3       1 <0>        -0.0056
     13 C9         -6.6530    1.2881    1.8075 C.3       1 <0>         0.0240
     14 N3         -6.3662    1.8253    0.4700 N.3       1 <0>        -0.5107
     15 C10        -4.9950    1.5005    0.0551 C.3       1 <0>         0.0544
     16 C11        -4.8435   -0.0176   -0.0614 C.3       1 <0>         0.0888
     17 H2         -5.2277   -0.5268    0.8347 H         1 <0>         0.0507
     18 C12        -3.3746   -0.3659   -0.3105 C.3       1 <0>        -0.1371
     19 C13        -3.1905   -1.8829   -0.2356 C.3       1 <0>        -0.0958
     20 H3         -3.5986   -2.2628    0.7126 H         1 <0>         0.0864
     21 C14        -3.9105   -2.5428   -1.4133 C.3       1 <0>        -0.0686
     22 C15        -3.7727   -4.0400   -1.3112 C.ar      1 <0>        -0.0998
     23 C16        -2.7920   -4.6947   -2.0327 C.ar      1 <0>        -0.0951
     24 C17        -2.6631   -6.0676   -1.9360 C.ar      1 <0>        -0.1166
     25 C18        -3.5202   -6.7868   -1.1241 C.ar      1 <0>        -0.1146
     26 C19        -4.5042   -6.1327   -0.4066 C.ar      1 <0>        -0.1207
     27 C20        -4.6306   -4.7594   -0.5003 C.ar      1 <0>        -0.1195
     28 C21        -1.7215   -2.2142   -0.2954 C.2       1 <0>         0.5240
     29 O2         -1.1623   -2.2994   -1.3683 O.2       1 <0>        -0.5365
     30 N4         -1.0292   -2.4157    0.8432 N.am      1 <0>        -0.7149
     31 C22         0.4184   -2.6342    0.7914 C.3       1 <0>         0.1996
     32 H4          0.5830   -3.2135   -0.1291 H         1 <0>         0.0998
     33 C23         1.1496   -1.3089    0.7777 C.ar      1 <0>        -0.1142
     34 C24         1.3596   -0.4103   -0.2550 C.ar      1 <0>        -0.0832
     35 C25         2.0677    0.7539   -0.0302 C.ar      1 <0>        -0.1227
     36 C26         2.5692    1.0240    1.2296 C.ar      1 <0>        -0.1068
     37 C27         2.3607    0.1292    2.2607 C.ar      1 <0>        -0.1112
     38 C28         1.6508   -1.0388    2.0372 C.ar      1 <0>        -0.0879
     39 C29         1.2906   -2.1640    2.9835 C.3       1 <0>        -0.1129
     40 C30         0.8987   -3.3473    2.0733 C.3       1 <0>         0.1169
     41 H5          1.6739   -4.1143    1.9295 H         1 <0>         0.0829
     42 O3         -0.1598   -4.1089    2.6578 O.3       1 <0>        -0.5995
     43 O4         -5.6371   -0.4932   -1.1505 O.3       1 <0>        -0.6116
     44 C31       -10.4079    1.5495    1.6679 C.3       1 <0>         0.0517
     45 C32       -10.7471    0.7868    2.9226 C.ar      1 <0>        -0.2160
     46 C33       -11.3252   -0.4713    2.8450 C.ar      1 <0>        -0.0470
     47 C34       -11.6158   -1.1378    4.0252 C.ar      1 <0>        -0.1655
     48 C35       -11.3308   -0.5265    5.2317 C.ar      1 <0>         0.1367
     49 N5        -10.7852    0.6734    5.2676 N.ar      1 <0>        -0.4745
     50 C36       -10.4912    1.3347    4.1651 C.ar      1 <0>         0.1296
     51 H6         -5.2070    2.6463   -3.6716 H         1 <0>         0.0757
     52 H7         -5.3664    2.4047   -5.4445 H         1 <0>         0.0636
     53 H8         -5.1206    0.9910   -4.3639 H         1 <0>         0.0570
     54 H9         -8.7378    0.8039   -5.2788 H         1 <0>         0.0613
     55 H10        -7.1747   -0.0808   -5.2990 H         1 <0>         0.0643
     56 H11        -7.4205    1.3329   -6.3795 H         1 <0>         0.0766
     57 H12        -8.8579    3.1061   -4.3159 H         1 <0>         0.0522
     58 H13        -7.5406    3.6353   -5.4165 H         1 <0>         0.0670
     59 H14        -7.3811    3.8767   -3.6436 H         1 <0>         0.0771
     60 H15        -7.9530    0.3132   -2.9072 H         1 <0>         0.4151
     61 H16        -8.8083    2.8601   -0.0598 H         1 <0>         0.1403
     62 H17        -9.4857    1.3717   -0.8030 H         1 <0>         0.1372
     63 H18        -8.1106    2.8123    2.2869 H         1 <0>         0.1396
     64 H19        -8.2879    1.2897    3.2234 H         1 <0>         0.1331
     65 H20        -5.9172    1.6784    2.5260 H         1 <0>         0.1264
     66 H21        -6.5945    0.1899    1.7829 H         1 <0>         0.0614
     67 H22        -4.7870    1.9657   -0.9198 H         1 <0>         0.1118
     68 H23        -4.2851    1.8835    0.8030 H         1 <0>         0.1019
     69 H24        -3.0772   -0.0092   -1.3077 H         1 <0>         0.0889
     70 H25        -2.7484    0.1177    0.4537 H         1 <0>         0.0786
     71 H26        -4.9760   -2.2703   -1.3909 H         1 <0>         0.0891
     72 H27        -3.4633   -2.1969   -2.3569 H         1 <0>         0.0956
     73 H28        -2.1247   -4.1332   -2.6697 H         1 <0>         0.1284
     74 H29        -1.8946   -6.5787   -2.4969 H         1 <0>         0.1223
     75 H30        -3.4212   -7.8597   -1.0507 H         1 <0>         0.1222
     76 H31        -5.1739   -6.6947    0.2274 H         1 <0>         0.1206
     77 H32        -5.3993   -4.2484    0.0603 H         1 <0>         0.1131
     78 H33        -1.5512   -2.4161    1.8115 H         1 <0>         0.4214
     79 H34         0.9686   -0.6208   -1.2395 H         1 <0>         0.1238
     80 H35         2.2298    1.4524   -0.8377 H         1 <0>         0.1260
     81 H36         3.1237    1.9336    1.4070 H         1 <0>         0.1270
     82 H37         2.7527    0.3409    3.2445 H         1 <0>         0.1219
     83 H38         2.1602   -2.4074    3.6116 H         1 <0>         0.0830
     84 H39         0.4524   -1.8509    3.6233 H         1 <0>         0.0909
     85 H40         0.0183   -4.6798    3.5810 H         1 <0>         0.4181
     86 H41        -5.6555   -1.5667   -1.3900 H         1 <0>         0.4031
     87 H42       -10.4859    2.6293    1.8628 H         1 <0>         0.1396
     88 H43       -11.1091    1.2697    0.8679 H         1 <0>         0.1411
     89 H44       -11.5404   -0.9227    1.8877 H         1 <0>         0.1447
     90 H45       -12.0630   -2.1206    4.0023 H         1 <0>         0.1505
     91 H46       -11.5579   -1.0374    6.1558 H         1 <0>         0.1703
     92 H47       -10.0449    2.3158    4.2342 H         1 <0>         0.1620
     93 H48        -8.9500    0.1291    1.2050 H         1 <0>         0.4353
@<TRIPOS>BOND
     1    1    2 1
     2    1   51 1
     3    1   52 1
     4    1   53 1
     5    2    3 1
     6    2    4 1
     7    2    5 1
     8    3   54 1
     9    3   55 1
    10    3   56 1
    11    4   57 1
    12    4   58 1
    13    4   59 1
    14    5    6 am
    15    5   60 1
    16    6    7 2
    17    6    8 1
    18    8    9 1
    19    8   14 1
    20    8   10 1
    21   10   11 1
    22   10   61 1
    23   10   62 1
    24   11   12 1
    25   11   44 1
    26   11   93 1
    27   12   13 1
    28   12   63 1
    29   12   64 1
    30   13   14 1
    31   13   65 1
    32   13   66 1
    33   14   15 1
    34   15   16 1
    35   15   67 1
    36   15   68 1
    37   16   17 1
    38   16   18 1
    39   16   43 1
    40   18   19 1
    41   18   69 1
    42   18   70 1
    43   19   20 1
    44   19   21 1
    45   19   28 1
    46   21   22 1
    47   21   71 1
    48   21   72 1
    49   22   27 ar
    50   22   23 ar
    51   23   24 ar
    52   23   73 1
    53   24   25 ar
    54   24   74 1
    55   25   26 ar
    56   25   75 1
    57   26   27 ar
    58   26   76 1
    59   27   77 1
    60   28   29 2
    61   28   30 am
    62   30   31 1
    63   30   78 1
    64   31   32 1
    65   31   40 1
    66   31   33 1
    67   33   38 ar
    68   33   34 ar
    69   34   35 ar
    70   34   79 1
    71   35   36 ar
    72   35   80 1
    73   36   37 ar
    74   36   81 1
    75   37   38 ar
    76   37   82 1
    77   38   39 1
    78   39   40 1
    79   39   83 1
    80   39   84 1
    81   40   41 1
    82   40   42 1
    83   42   85 1
    84   43   86 1
    85   44   45 1
    86   44   87 1
    87   44   88 1
    88   45   50 ar
    89   45   46 ar
    90   46   47 ar
    91   46   89 1
    92   47   48 ar
    93   47   90 1
    94   48   49 ar
    95   48   91 1
    96   49   50 ar
    97   50   92 1
@<TRIPOS>MOLECULE
ZINC18099446
   22    22     0     0     0
SMALL
USER_CHARGES

@<TRIPOS>ATOM
      1 C1         -0.2268    1.6973   -0.1345 C.3       1 <0>         0.0026
      2 N1         -0.1148    0.2330   -0.1695 N.3       1 <0>        -0.3045
      3 C2          0.7605   -0.2539    0.9051 C.3       1 <0>         0.0026
      4 N2         -1.3464   -0.3539   -0.1014 N.pl3     1 <0>        -0.3402
      5 N3         -1.7510   -1.1170   -1.0595 N.2       1 <0>        -0.0198
      6 C3         -2.9045   -1.7673   -0.9490 C.2       1 <0>         0.0637
      7 C4         -3.8981   -1.6429    0.1245 C.2       1 <0>         0.2035
      8 N4         -4.8749   -2.4841   -0.1971 N.2       1 <0>        -0.5141
      9 C5         -4.5701   -3.0890   -1.3362 C.2       1 <0>         0.2266
     10 N5         -3.4164   -2.6800   -1.8033 N.2       1 <0>        -0.4901
     11 C6         -3.8270   -0.7673    1.3114 C.2       1 <0>         0.4202
     12 O1         -3.3421   -1.2488    2.4791 O.3       1 <0>        -0.7753
     13 N6         -4.2305    0.4671    1.2344 N.2       1 <0>        -0.8460
     14 H1          0.7681    2.1392   -0.1901 H         1 <0>         0.0985
     15 H2         -0.8228    2.0364   -0.9817 H         1 <0>         0.0837
     16 H3         -0.7087    2.0027    0.7943 H         1 <0>         0.0472
     17 H4          0.3499    0.0423    1.8704 H         1 <0>         0.0477
     18 H5          0.8259   -1.3408    0.8561 H         1 <0>         0.0824
     19 H6          1.7552    0.1757    0.7862 H         1 <0>         0.0997
     20 H7         -1.9167   -0.1969    0.6674 H         1 <0>         0.3985
     21 H8         -5.1962   -3.8236   -1.8209 H         1 <0>         0.2013
     22 H9         -4.1838    1.0422    2.0141 H         1 <0>         0.3120
@<TRIPOS>BOND
     1    1    2 1
     2    1   14 1
     3    1   15 1
     4    1   16 1
     5    2    3 1
     6    2    4 1
     7    3   17 1
     8    3   18 1
     9    3   19 1
    10    4    5 1
    11    4   20 1
    12    5    6 2
    13    6   10 1
    14    6    7 1
    15    7    8 2
    16    7   11 1
    17    8    9 1
    18    9   10 2
    19    9   21 1
    20   11   12 1
    21   11   13 2
    22   13   22 1
@<TRIPOS>MOLECULE
ZINC16929327
   28    29     0     0     0
SMALL
USER_CHARGES

@<TRIPOS>ATOM
      1 C1         -0.0162    1.3468    0.0094 C.2       1 <0>         0.4488
      2 N1          1.1088    2.0171    0.0023 N.2       1 <0>        -0.5989
      3 C2          2.2838    1.3716   -0.0123 C.2       1 <0>         0.6305
      4 N2          2.3216    0.0465   -0.0202 N.2       1 <0>        -0.6395
      5 C3          1.1841   -0.6540   -0.0131 C.2       1 <0>         0.6588
      6 O1          1.2141   -1.8729   -0.0203 O.2       1 <0>        -0.5107
      7 N3          0.0021   -0.0041    0.0020 N.am      1 <0>        -0.5555
      8 C4         -1.2538   -0.7583    0.0104 C.3       1 <0>         0.2895
      9 H1         -2.1010   -0.0820    0.1239 H         1 <0>         0.1177
     10 C5         -1.3944   -1.5832   -1.2882 C.3       1 <0>        -0.1914
     11 C6         -2.0589   -2.8995   -0.8267 C.3       1 <0>         0.0853
     12 H2         -1.4075   -3.7489   -1.0329 H         1 <0>         0.0841
     13 C7         -2.2411   -2.7143    0.6961 C.3       1 <0>         0.0923
     14 H3         -3.2407   -2.3394    0.9158 H         1 <0>         0.0953
     15 O2         -1.2456   -1.7367    1.0727 O.3       1 <0>        -0.3423
     16 C8         -1.9968   -4.0364    1.4264 C.3       1 <0>         0.0844
     17 O3         -2.2831   -3.8724    2.8168 O.3       1 <0>        -0.5669
     18 O4         -3.3242   -3.0733   -1.4677 O.3       1 <0>        -0.5562
     19 N4          3.4549    2.0873   -0.0197 N.pl3     1 <0>        -0.7892
     20 H4         -0.9587    1.8740    0.0258 H         1 <0>         0.2199
     21 H5         -2.0321   -1.0637   -2.0034 H         1 <0>         0.0995
     22 H6         -0.4146   -1.7817   -1.7225 H         1 <0>         0.0972
     23 H7         -2.6459   -4.8067    1.0102 H         1 <0>         0.0685
     24 H8         -0.9553   -4.3329    1.3024 H         1 <0>         0.0614
     25 H9         -2.1497   -4.6727    3.3429 H         1 <0>         0.3847
     26 H10        -3.2717   -3.1352   -2.4313 H         1 <0>         0.3880
     27 H11         3.4308    3.0570   -0.0143 H         1 <0>         0.4208
     28 H12         4.3068    1.6235   -0.0303 H         1 <0>         0.4237
@<TRIPOS>BOND
     1    1    7 1
     2    1    2 2
     3    1   20 1
     4    2    3 1
     5    3    4 2
     6    3   19 1
     7    4    5 1
     8    5    6 2
     9    5    7 am
    10    7    8 1
    11    8    9 1
    12    8   15 1
    13    8   10 1
    14   10   11 1
    15   10   21 1
    16   10   22 1
    17   11   12 1
    18   11   13 1
    19   11   18 1
    20   13   14 1
    21   13   15 1
    22   13   16 1
    23   16   17 1
    24   16   23 1
    25   16   24 1
    26   17   25 1
    27   18   26 1
    28   19   27 1
    29   19   28 1
@<TRIPOS>MOLECULE
ZINC00968328
   44    46     0     0     0
SMALL
USER_CHARGES

@<TRIPOS>ATOM
      1 C1         -0.0178    1.4608    0.0101 C.3       1 <0>         0.0943
      2 N1          0.0021   -0.0041    0.0020 N.pl3     1 <0>        -0.6139
      3 C2          0.0241   -0.7433    1.2666 C.3       1 <0>         0.1321
      4 C3         -1.4105   -1.0203    1.7205 C.3       1 <0>         0.0409
      5 O1         -2.0465   -1.8923    0.7840 O.3       1 <0>        -0.2838
      6 C4         -3.3348   -2.2400    1.0412 C.ar      1 <0>         0.1410
      7 C5         -3.9756   -1.7474    2.1688 C.ar      1 <0>        -0.2122
      8 C6         -5.2854   -2.1021    2.4278 C.ar      1 <0>        -0.0601
      9 C7         -5.9575   -2.9475    1.5646 C.ar      1 <0>        -0.1420
     10 C8         -5.3210   -3.4402    0.4404 C.ar      1 <0>        -0.0675
     11 C9         -4.0133   -3.0837    0.1736 C.ar      1 <0>        -0.1507
     12 C10        -7.3862   -3.3331    1.8499 C.3       1 <0>        -0.0487
     13 C11        -8.3282   -2.3252    1.1885 C.3       1 <0>        -0.0704
     14 H1         -8.1156   -2.2277    0.1239 H         1 <0>         0.1610
     15 C12        -9.7865   -2.6882    1.4311 C.2       1 <0>         0.5301
     16 O2        -10.2728   -3.7226    1.0268 O.2       1 <0>        -0.4577
     17 N2        -10.4863   -1.7976    2.1136 N.am      1 <0>        -0.6898
     18 C13        -9.9701   -0.6427    2.5734 C.2       1 <0>         0.5614
     19 O3        -10.5320    0.2306    3.2056 O.2       1 <0>        -0.4177
     20 S1         -8.2649   -0.6922    2.0368 S.3       1 <0>        -0.1442
     21 C14         0.0000   -0.6925   -1.2055 C.ar      1 <0>         0.4042
     22 C15         0.0901    0.0128   -2.4015 C.ar      1 <0>        -0.2403
     23 C16         0.0870   -0.6849   -3.5956 C.ar      1 <0>        -0.0375
     24 C17        -0.0066   -2.0699   -3.5538 C.ar      1 <0>        -0.2346
     25 C18        -0.0930   -2.7051   -2.3314 C.ar      1 <0>         0.1463
     26 N3         -0.0823   -2.0140   -1.2072 N.ar      1 <0>        -0.5187
     27 H2          1.0048    1.8381    0.0023 H         1 <0>         0.0542
     28 H3         -0.5450    1.8219   -0.8730 H         1 <0>         0.0704
     29 H4         -0.5280    1.8123    0.9069 H         1 <0>         0.0700
     30 H5          0.5496   -1.6879    1.1262 H         1 <0>         0.0964
     31 H6          0.5371   -0.1514    2.0246 H         1 <0>         0.0938
     32 H7         -1.3961   -1.4911    2.7035 H         1 <0>         0.0688
     33 H8         -1.9619   -0.0816    1.7754 H         1 <0>         0.0592
     34 H9         -3.4507   -1.0876    2.8437 H         1 <0>         0.1266
     35 H10        -5.7846   -1.7188    3.3055 H         1 <0>         0.1282
     36 H11        -5.8481   -4.1007   -0.2321 H         1 <0>         0.1303
     37 H12        -3.5179   -3.4652   -0.7070 H         1 <0>         0.1299
     38 H13        -7.5805   -4.3285    1.4504 H         1 <0>         0.1051
     39 H14        -7.5539   -3.3347    2.9269 H         1 <0>         0.0892
     40 H15       -11.4209   -1.9864    2.2920 H         1 <0>         0.4182
     41 H16         0.1612    1.0904   -2.3974 H         1 <0>         0.1284
     42 H17         0.1553   -0.1643   -4.5394 H         1 <0>         0.1296
     43 H18        -0.0120   -2.6441   -4.4685 H         1 <0>         0.1285
     44 H19        -0.1662   -3.7820   -2.2944 H         1 <0>         0.1519
@<TRIPOS>BOND
     1    1    2 1
     2    1   27 1
     3    1   28 1
     4    1   29 1
     5    2    3 1
     6    2   21 1
     7    3    4 1
     8    3   30 1
     9    3   31 1
    10    4    5 1
    11    4   32 1
    12    4   33 1
    13    5    6 1
    14    6   11 ar
    15    6    7 ar
    16    7    8 ar
    17    7   34 1
    18    8    9 ar
    19    8   35 1
    20    9   10 ar
    21    9   12 1
    22   10   11 ar
    23   10   36 1
    24   11   37 1
    25   12   13 1
    26   12   38 1
    27   12   39 1
    28   13   14 1
    29   13   20 1
    30   13   15 1
    31   15   16 2
    32   15   17 am
    33   17   18 am
    34   17   40 1
    35   18   19 2
    36   18   20 1
    37   21   26 ar
    38   21   22 ar
    39   22   23 ar
    40   22   41 1
    41   23   24 ar
    42   23   42 1
    43   24   25 ar
    44   24   43 1
    45   25   26 ar
    46   25   44 1
@<TRIPOS>MOLECULE
ZINC00968330
   44    46     0     0     0
SMALL
USER_CHARGES

@<TRIPOS>ATOM
      1 C1         -0.0178    1.4608    0.0101 C.3       1 <0>         0.0945
      2 N1          0.0021   -0.0041    0.0020 N.pl3     1 <0>        -0.6142
      3 C2          0.0241   -0.7433    1.2666 C.3       1 <0>         0.1321
      4 C3         -1.4105   -1.0203    1.7205 C.3       1 <0>         0.0411
      5 O1         -2.0465   -1.8923    0.7840 O.3       1 <0>        -0.2835
      6 C4         -3.3348   -2.2400    1.0412 C.ar      1 <0>         0.1409
      7 C5         -3.9756   -1.7474    2.1688 C.ar      1 <0>        -0.2139
      8 C6         -5.2854   -2.1021    2.4278 C.ar      1 <0>        -0.0668
      9 C7         -5.9575   -2.9475    1.5646 C.ar      1 <0>        -0.1417
     10 C8         -5.3210   -3.4402    0.4404 C.ar      1 <0>        -0.0611
     11 C9         -4.0133   -3.0837    0.1736 C.ar      1 <0>        -0.1489
     12 C10        -7.3862   -3.3331    1.8499 C.3       1 <0>        -0.0487
     13 C11        -8.3282   -2.3252    1.1885 C.3       1 <0>        -0.0711
     14 H1         -8.0909   -1.3060    1.4933 H         1 <0>         0.1601
     15 C12        -9.7859   -2.6623    1.4695 C.2       1 <0>         0.5303
     16 O2        -10.2448   -2.6686    2.5917 O.2       1 <0>        -0.4587
     17 N2        -10.5170   -2.9474    0.4052 N.am      1 <0>        -0.6898
     18 C13       -10.0318   -2.9469   -0.8502 C.2       1 <0>         0.5609
     19 O3        -10.6238   -3.1938   -1.8830 O.2       1 <0>        -0.4172
     20 S1         -8.3132   -2.4970   -0.6448 S.3       1 <0>        -0.1415
     21 C14         0.0000   -0.6925   -1.2055 C.ar      1 <0>         0.4038
     22 C15         0.0901    0.0128   -2.4015 C.ar      1 <0>        -0.2402
     23 C16         0.0870   -0.6849   -3.5956 C.ar      1 <0>        -0.0374
     24 C17        -0.0066   -2.0699   -3.5538 C.ar      1 <0>        -0.2340
     25 C18        -0.0930   -2.7051   -2.3314 C.ar      1 <0>         0.1464
     26 N3         -0.0823   -2.0140   -1.2072 N.ar      1 <0>        -0.5186
     27 H2          1.0048    1.8381    0.0023 H         1 <0>         0.0541
     28 H3         -0.5450    1.8219   -0.8730 H         1 <0>         0.0704
     29 H4         -0.5280    1.8123    0.9069 H         1 <0>         0.0696
     30 H5          0.5496   -1.6879    1.1262 H         1 <0>         0.0964
     31 H6          0.5371   -0.1514    2.0246 H         1 <0>         0.0936
     32 H7         -1.3961   -1.4911    2.7035 H         1 <0>         0.0686
     33 H8         -1.9619   -0.0816    1.7754 H         1 <0>         0.0586
     34 H9         -3.4507   -1.0876    2.8437 H         1 <0>         0.1263
     35 H10        -5.7846   -1.7188    3.3055 H         1 <0>         0.1256
     36 H11        -5.8481   -4.1007   -0.2321 H         1 <0>         0.1327
     37 H12        -3.5179   -3.4652   -0.7070 H         1 <0>         0.1303
     38 H13        -7.5805   -4.3285    1.4504 H         1 <0>         0.0900
     39 H14        -7.5539   -3.3347    2.9269 H         1 <0>         0.1041
     40 H15       -11.4523   -3.1688    0.5362 H         1 <0>         0.4181
     41 H16         0.1612    1.0904   -2.3974 H         1 <0>         0.1282
     42 H17         0.1553   -0.1643   -4.5394 H         1 <0>         0.1296
     43 H18        -0.0120   -2.6441   -4.4685 H         1 <0>         0.1287
     44 H19        -0.1662   -3.7820   -2.2944 H         1 <0>         0.1520
@<TRIPOS>BOND
     1    1    2 1
     2    1   27 1
     3    1   28 1
     4    1   29 1
     5    2    3 1
     6    2   21 1
     7    3    4 1
     8    3   30 1
     9    3   31 1
    10    4    5 1
    11    4   32 1
    12    4   33 1
    13    5    6 1
    14    6   11 ar
    15    6    7 ar
    16    7    8 ar
    17    7   34 1
    18    8    9 ar
    19    8   35 1
    20    9   10 ar
    21    9   12 1
    22   10   11 ar
    23   10   36 1
    24   11   37 1
    25   12   13 1
    26   12   38 1
    27   12   39 1
    28   13   14 1
    29   13   20 1
    30   13   15 1
    31   15   16 2
    32   15   17 am
    33   17   18 am
    34   17   40 1
    35   18   19 2
    36   18   20 1
    37   21   26 ar
    38   21   22 ar
    39   22   23 ar
    40   22   41 1
    41   23   24 ar
    42   23   42 1
    43   24   25 ar
    44   24   43 1
    45   25   26 ar
    46   25   44 1
@<TRIPOS>MOLECULE
ZINC03871723
   42    45     0     0     0
SMALL
USER_CHARGES

@<TRIPOS>ATOM
      1 C1         -0.5977    0.0193   -0.7492 C.ar      1 <0>        -0.1160
      2 C2          0.0190   -0.0168    0.4884 C.ar      1 <0>        -0.1177
      3 C3          1.3187   -0.4672    0.6017 C.ar      1 <0>        -0.1089
      4 C4          2.0096   -0.8860   -0.5335 C.ar      1 <0>        -0.0512
      5 C5          1.3835   -0.8475   -1.7776 C.ar      1 <0>        -0.1088
      6 C6          0.0835   -0.3953   -1.8794 C.ar      1 <0>        -0.1173
      7 C7          3.4073   -1.3708   -0.4179 C.ar      1 <0>        -0.0331
      8 C8          4.0317   -1.4142    0.8270 C.ar      1 <0>        -0.1095
      9 C9          5.3317   -1.8665    0.9288 C.ar      1 <0>        -0.0905
     10 C10         6.0148   -2.2757   -0.2022 C.ar      1 <0>        -0.1082
     11 C11         5.4000   -2.2342   -1.4406 C.ar      1 <0>        -0.0964
     12 C12         4.0982   -1.7896   -1.5531 C.ar      1 <0>        -0.1078
     13 C13         7.4343   -2.7680   -0.0849 C.3       1 <0>         0.2247
     14 H1          8.1146   -1.9165   -0.0762 H         1 <0>         0.1172
     15 C14         7.5908   -3.5493    1.1943 C.ar      1 <0>        -0.1069
     16 C15         6.7342   -4.5977    1.4731 C.ar      1 <0>        -0.0942
     17 C16         6.8778   -5.3143    2.6464 C.ar      1 <0>        -0.1170
     18 C17         7.8784   -4.9827    3.5408 C.ar      1 <0>        -0.1070
     19 C18         8.7356   -3.9348    3.2615 C.ar      1 <0>        -0.1183
     20 C19         8.5947   -3.2210    2.0862 C.ar      1 <0>        -0.0997
     21 N1          7.7475   -3.6317   -1.2260 N.pl3     1 <0>        -0.4504
     22 C20         8.7374   -3.4301   -2.1496 C.2       1 <0>        -0.0561
     23 C21         8.6749   -4.4573   -3.0183 C.2       1 <0>        -0.0275
     24 N2          7.6741   -5.2640   -2.6356 N.2       1 <0>        -0.4922
     25 C22         7.1173   -4.7785   -1.5598 C.2       1 <0>         0.1904
     26 H2         -1.6164    0.3682   -0.8327 H         1 <0>         0.1242
     27 H3         -0.5174    0.3085    1.3676 H         1 <0>         0.1254
     28 H4          1.7994   -0.4946    1.5685 H         1 <0>         0.1254
     29 H5          1.9145   -1.1707   -2.6608 H         1 <0>         0.1254
     30 H6         -0.4029   -0.3653   -2.8432 H         1 <0>         0.1256
     31 H7          3.4994   -1.0943    1.7106 H         1 <0>         0.1293
     32 H8          5.8166   -1.9006    1.8932 H         1 <0>         0.1281
     33 H9          5.9381   -2.5546   -2.3205 H         1 <0>         0.1252
     34 H10         3.6177   -1.7619   -2.5199 H         1 <0>         0.1284
     35 H11         5.9525   -4.8568    0.7744 H         1 <0>         0.1212
     36 H12         6.2081   -6.1330    2.8646 H         1 <0>         0.1269
     37 H13         7.9901   -5.5422    4.4578 H         1 <0>         0.1259
     38 H14         9.5171   -3.6756    3.9604 H         1 <0>         0.1269
     39 H15         9.2667   -2.4047    1.8663 H         1 <0>         0.1247
     40 H16         9.4344   -2.6056   -2.1767 H         1 <0>         0.1738
     41 H17         9.3179   -4.6054   -3.8733 H         1 <0>         0.1698
     42 H18         6.2882   -5.2194   -1.0263 H         1 <0>         0.1965
@<TRIPOS>BOND
     1    1    6 ar
     2    1    2 ar
     3    1   26 1
     4    2    3 ar
     5    2   27 1
     6    3    4 ar
     7    3   28 1
     8    4    5 ar
     9    4    7 1
    10    5    6 ar
    11    5   29 1
    12    6   30 1
    13    7   12 ar
    14    7    8 ar
    15    8    9 ar
    16    8   31 1
    17    9   10 ar
    18    9   32 1
    19   10   11 ar
    20   10   13 1
    21   11   12 ar
    22   11   33 1
    23   12   34 1
    24   13   14 1
    25   13   15 1
    26   13   21 1
    27   15   20 ar
    28   15   16 ar
    29   16   17 ar
    30   16   35 1
    31   17   18 ar
    32   17   36 1
    33   18   19 ar
    34   18   37 1
    35   19   20 ar
    36   19   38 1
    37   20   39 1
    38   21   25 1
    39   21   22 1
    40   22   23 2
    41   22   40 1
    42   23   24 1
    43   23   41 1
    44   24   25 2
    45   25   42 1
@<TRIPOS>MOLECULE
ZINC19702112
   26    25     0     0     0
SMALL
USER_CHARGES

@<TRIPOS>ATOM
      1 C1         -0.0187    1.5258    0.0104 C.3       1 <0>        -0.1859
      2 C2          0.0021   -0.0041    0.0020 C.3       1 <0>        -0.0882
      3 C3         -1.4333   -0.5336    0.0129 C.3       1 <0>        -1.0366
      4 O1         -2.1245   -0.0603   -1.1448 O.3       1 <0>        -0.5252
      5 P1         -1.4086   -2.3565    0.0029 P.3       1 <0>         2.2264
      6 O2         -0.7735   -2.8701    1.3143 O.2       1 <0>        -1.0603
      7 O3         -2.9145   -2.9129   -0.1181 O.3       1 <0>        -0.8891
      8 O4         -0.5776   -2.8536   -1.2010 O.3       1 <0>        -1.0981
      9 P2         -2.2866    0.0543    1.5127 P.3       1 <0>         2.2817
     10 O5         -1.5394   -0.4576    2.7644 O.2       1 <0>        -1.0685
     11 O6         -2.3075    1.5991    1.5213 O.3       1 <0>        -1.1022
     12 O7         -3.7970   -0.5030    1.5242 O.3       1 <0>        -0.8936
     13 C4          1.4167    2.0553   -0.0004 C.3       1 <0>        -0.0083
     14 N1          1.3968    3.5242    0.0076 N.4       1 <0>        -0.6326
     15 H1         -0.5459    1.8868   -0.8726 H         1 <0>         0.0758
     16 H2         -0.5289    1.8773    0.9072 H         1 <0>         0.1491
     17 H3          0.5123   -0.3556   -0.8948 H         1 <0>         0.0625
     18 H4          0.5293   -0.3651    0.8851 H         1 <0>         0.0893
     19 H5         -1.7251   -0.3356   -1.9813 H         1 <0>         0.3483
     20 H6         -4.3116   -0.2289    2.2956 H         1 <0>         0.4064
     21 H7          1.9439    1.6943    0.8826 H         1 <0>         0.1313
     22 H8          1.9269    1.7038   -0.8972 H         1 <0>         0.1196
     23 H9          0.9088    3.8584   -0.8098 H         1 <0>         0.4291
     24 H10         0.9245    3.8496    0.8378 H         1 <0>         0.4382
     25 H11         2.3434    3.8734    0.0005 H         1 <0>         0.4241
     26 H12        -2.9776   -3.8778   -0.1293 H         1 <0>         0.4066
@<TRIPOS>BOND
     1    1    2 1
     2    1   13 1
     3    1   15 1
     4    1   16 1
     5    2    3 1
     6    2   17 1
     7    2   18 1
     8    3    4 1
     9    3    5 1
    10    3    9 1
    11    4   19 1
    12    5    6 2
    13    5    7 1
    14    5    8 1
    15    7   26 1
    16    9   10 2
    17    9   11 1
    18    9   12 1
    19   12   20 1
    20   13   14 1
    21   13   21 1
    22   13   22 1
    23   14   23 1
    24   14   24 1
    25   14   25 1
@<TRIPOS>MOLECULE
ZINC19418959
   53    56     0     0     0
SMALL
USER_CHARGES

@<TRIPOS>ATOM
      1 C1          0.4328    1.5258   -0.3011 C.3       1 <0>         0.0191
      2 N1          0.3593    0.0600   -0.2373 N.3       1 <0>        -0.5429
      3 C2          0.8896   -0.5479   -1.4659 C.3       1 <0>         0.0236
      4 C3          0.7405   -2.0687   -1.3844 C.3       1 <0>        -0.0021
      5 N2          1.4724   -2.5705   -0.2140 N.4       1 <0>        -0.3864
      6 C4          0.9155   -1.9734    1.0070 C.3       1 <0>        -0.0074
      7 C5          1.0660   -0.4518    0.9454 C.3       1 <0>         0.0248
      8 C6          1.3441   -4.0323   -0.1464 C.3       1 <0>        -0.0072
      9 C7          2.2069   -4.5677    0.9981 C.3       1 <0>        -0.1860
     10 C8          2.0732   -6.0902    1.0685 C.3       1 <0>         0.1181
     11 N3          2.8994   -6.6028    2.1644 N.pl3     1 <0>        -0.5624
     12 C9          2.3073   -6.7118    3.4198 C.ar      1 <0>         0.1854
     13 C10         1.2060   -5.9141    3.7135 C.ar      1 <0>        -0.1634
     14 C11         0.5902   -6.0007    4.9473 C.ar      1 <0>        -0.0766
     15 C12         1.0642   -6.8815    5.9011 C.ar      1 <0>        -0.1271
     16 C13         2.1593   -7.6780    5.6210 C.ar      1 <0>        -0.0512
     17 C14         2.7837   -7.5950    4.3846 C.ar      1 <0>        -0.1555
     18 S1          4.1834   -8.6105    4.0495 S.3       1 <0>         0.0508
     19 C15         4.9317   -7.8544    2.6456 C.ar      1 <0>        -0.1201
     20 C16         4.2155   -6.9492    1.8701 C.ar      1 <0>         0.1860
     21 C17         4.8314   -6.3674    0.7671 C.ar      1 <0>        -0.1187
     22 C18         6.1353   -6.6922    0.4434 C.ar      1 <0>        -0.1465
     23 C19         6.8381   -7.5986    1.2136 C.ar      1 <0>        -0.0782
     24 C20         6.2409   -8.1721    2.3149 C.ar      1 <0>        -0.0564
     25 C21         6.7925   -6.0557   -0.7542 C.3       1 <0>         0.5107
     26 F1          7.4304   -4.8737   -0.3627 F         1 <0>        -0.1734
     27 F2          7.7352   -6.9381   -1.2927 F         1 <0>        -0.1677
     28 F3          5.8220   -5.7644   -1.7188 F         1 <0>        -0.1812
     29 H1          1.4765    1.8352   -0.3565 H         1 <0>         0.0399
     30 H2         -0.0981    1.8781   -1.1855 H         1 <0>         0.0846
     31 H3         -0.0256    1.9517    0.5914 H         1 <0>         0.0847
     32 H4          0.3342   -0.1736   -2.3259 H         1 <0>         0.1251
     33 H5          1.9434   -0.2910   -1.5732 H         1 <0>         0.0609
     34 H6         -0.3146   -2.3258   -1.2908 H         1 <0>         0.1393
     35 H7          1.1462   -2.5225   -2.2886 H         1 <0>         0.1373
     36 H8         -0.1405   -2.2310    1.0883 H         1 <0>         0.1397
     37 H9          1.4508   -2.3566    1.8757 H         1 <0>         0.1346
     38 H10         2.1227   -0.1933    0.8778 H         1 <0>         0.0606
     39 H11         0.6393   -0.0074    1.8446 H         1 <0>         0.1243
     40 H12         0.3016   -4.2978    0.0297 H         1 <0>         0.1367
     41 H13         1.6765   -4.4702   -1.0876 H         1 <0>         0.1368
     42 H14         3.2494   -4.3022    0.8220 H         1 <0>         0.0947
     43 H15         1.8745   -4.1298    1.9393 H         1 <0>         0.0988
     44 H16         1.0308   -6.3556    1.2446 H         1 <0>         0.1004
     45 H17         2.4057   -6.5280    0.1273 H         1 <0>         0.0974
     46 H18         0.8307   -5.2231    2.9732 H         1 <0>         0.1250
     47 H19        -0.2642   -5.3778    5.1674 H         1 <0>         0.1340
     48 H20         0.5800   -6.9473    6.8642 H         1 <0>         0.1380
     49 H21         2.5295   -8.3664    6.3664 H         1 <0>         0.1394
     50 H22         4.2881   -5.6578    0.1607 H         1 <0>         0.1365
     51 H23         7.8561   -7.8515    0.9568 H         1 <0>         0.1503
     52 H24         6.7918   -8.8800    2.9163 H         1 <0>         0.1515
     53 H25         2.4470   -2.3223   -0.2952 H         1 <0>         0.4212
@<TRIPOS>BOND
     1    1    2 1
     2    1   29 1
     3    1   30 1
     4    1   31 1
     5    2    7 1
     6    2    3 1
     7    3    4 1
     8    3   32 1
     9    3   33 1
    10    4    5 1
    11    4   34 1
    12    4   35 1
    13    5    6 1
    14    5    8 1
    15    5   53 1
    16    6    7 1
    17    6   36 1
    18    6   37 1
    19    7   38 1
    20    7   39 1
    21    8    9 1
    22    8   40 1
    23    8   41 1
    24    9   10 1
    25    9   42 1
    26    9   43 1
    27   10   11 1
    28   10   44 1
    29   10   45 1
    30   11   20 1
    31   11   12 1
    32   12   17 ar
    33   12   13 ar
    34   13   14 ar
    35   13   46 1
    36   14   15 ar
    37   14   47 1
    38   15   16 ar
    39   15   48 1
    40   16   17 ar
    41   16   49 1
    42   17   18 1
    43   18   19 1
    44   19   24 ar
    45   19   20 ar
    46   20   21 ar
    47   21   22 ar
    48   21   50 1
    49   22   23 ar
    50   22   25 1
    51   23   24 ar
    52   23   51 1
    53   24   52 1
    54   25   26 1
    55   25   27 1
    56   25   28 1
@<TRIPOS>MOLECULE
ZINC05193039
   26    26     0     0     0
SMALL
USER_CHARGES
5,5-diallylhexahydropyrimidine-2,4,6-trione
@<TRIPOS>ATOM
      1 C1          1.9284    2.4262    3.3509 C.2       1 <0>        -0.1985
      2 C2          1.2123    3.0998    2.4851 C.2       1 <0>        -0.1526
      3 C3          1.8581    3.6518    1.2404 C.3       1 <0>        -0.0681
      4 C4          1.1004    3.1524    0.0085 C.3       1 <0>        -0.1509
      5 C5          1.1604    1.6366   -0.0002 C.2       1 <0>         0.5536
      6 O1          2.2209    1.0495   -0.0139 O.2       1 <0>        -0.5352
      7 N1         -0.0111    0.9658    0.0074 N.am      1 <0>        -0.7097
      8 C6         -1.1897    1.5988    0.0165 C.2       1 <0>         0.6669
      9 O2         -2.1951    0.9168    0.0177 O.3       1 <0>        -0.5984
     10 N2         -1.3421    2.9280    0.0306 N.2       1 <0>        -0.7147
     11 C7         -0.2858    3.7685    0.0250 C.2       1 <0>         0.5278
     12 O3         -0.4392    4.9710    0.0333 O.2       1 <0>        -0.5548
     13 C8          1.8298    3.6649   -1.2350 C.3       1 <0>        -0.0672
     14 C9          1.1558    3.1261   -2.4705 C.2       1 <0>        -0.1576
     15 C10         0.7377    3.9489   -3.4002 C.2       1 <0>        -0.1856
     16 H1          1.4570    2.0233    4.2595 H         1 <0>         0.0961
     17 H2          3.0010    2.2635    3.1693 H         1 <0>         0.0967
     18 H3          0.1397    3.2625    2.6667 H         1 <0>         0.1120
     19 H4          1.8284    4.7510    1.2686 H         1 <0>         0.0906
     20 H5          2.9039    3.3145    1.1894 H         1 <0>         0.0747
     21 H6         -0.0150   -0.1342    0.0062 H         1 <0>         0.4127
     22 H7          1.7996    4.7644   -1.2507 H         1 <0>         0.0857
     23 H8          2.8764    3.3272   -1.2114 H         1 <0>         0.0788
     24 H9          1.0149    2.0419   -2.5917 H         1 <0>         0.1017
     25 H10         0.2457    3.5556   -4.3020 H         1 <0>         0.0960
     26 H11         0.8786    5.0331   -3.2790 H         1 <0>         0.0999
@<TRIPOS>BOND
     1    1    2 2
     2    1   16 1
     3    1   17 1
     4    2    3 1
     5    2   18 1
     6    3    4 1
     7    3   19 1
     8    3   20 1
     9    4   11 1
    10    4    5 1
    11    4   13 1
    12    5    6 2
    13    5    7 am
    14    7    8 1
    15    7   21 1
    16    8    9 1
    17    8   10 2
    18   10   11 1
    19   11   12 2
    20   13   14 1
    21   13   22 1
    22   13   23 1
    23   14   15 2
    24   14   24 1
    25   15   25 1
    26   15   26 1
@<TRIPOS>MOLECULE
ZINC21992285
   28    27     0     0     0
SMALL
USER_CHARGES

@<TRIPOS>ATOM
      1 C1         -0.0187    1.5258    0.0104 C.3       1 <0>        -0.1855
      2 C2          0.0021   -0.0041    0.0020 C.3       1 <0>        -0.0031
      3 N1         -1.3761   -0.5125    0.0124 N.4       1 <0>        -0.6376
      4 C3          1.4167    2.0553   -0.0004 C.3       1 <0>        -0.0054
      5 N2          1.3968    3.5242    0.0076 N.4       1 <0>        -0.5058
      6 C4          2.7749    4.0327   -0.0028 C.3       1 <0>        -0.0246
      7 C5          2.7542    5.5625    0.0056 C.3       1 <0>        -0.0109
      8 S1          4.4560    6.1904   -0.0072 S.3       1 <0>        -0.7974
      9 P1          5.1025    5.8791   -2.0021 P.3       1 <0>         2.0754
     10 O1          4.1859    6.6619   -2.9686 O.2       1 <0>        -0.9917
     11 O2          6.6183    6.3973   -2.1621 O.3       1 <0>        -0.8635
     12 O3          5.0355    4.3721   -2.3360 O.3       1 <0>        -1.0035
     13 H1         -0.5459    1.8868   -0.8726 H         1 <0>         0.1126
     14 H2         -0.5289    1.8773    0.9072 H         1 <0>         0.1102
     15 H3          0.5123   -0.3556   -0.8948 H         1 <0>         0.1470
     16 H4          0.5293   -0.3651    0.8851 H         1 <0>         0.1450
     17 H5         -1.8484   -0.1871    0.8426 H         1 <0>         0.4384
     18 H6         -1.8641   -0.1783   -0.8050 H         1 <0>         0.4397
     19 H7          1.9439    1.6943    0.8826 H         1 <0>         0.1424
     20 H8          1.9269    1.7038   -0.8972 H         1 <0>         0.1477
     21 H9          0.9088    3.8584   -0.8098 H         1 <0>         0.4319
     22 H10         3.3021    3.6716    0.8803 H         1 <0>         0.1457
     23 H11         3.2851    3.6811   -0.8996 H         1 <0>         0.1617
     24 H12         2.2270    5.9236   -0.8774 H         1 <0>         0.1087
     25 H13         2.2440    5.9140    0.9024 H         1 <0>         0.1202
     26 H14        -1.3624   -1.5214    0.0069 H         1 <0>         0.4481
     27 H15         0.9245    3.8496    0.8378 H         1 <0>         0.4264
     28 H16         6.9803    6.2858   -3.0519 H         1 <0>         0.4279
@<TRIPOS>BOND
     1    1    2 1
     2    1    4 1
     3    1   13 1
     4    1   14 1
     5    2    3 1
     6    2   15 1
     7    2   16 1
     8    3   17 1
     9    3   18 1
    10    3   26 1
    11    4    5 1
    12    4   19 1
    13    4   20 1
    14    5    6 1
    15    5   21 1
    16    5   27 1
    17    6    7 1
    18    6   22 1
    19    6   23 1
    20    7    8 1
    21    7   24 1
    22    7   25 1
    23    8    9 1
    24    9   10 2
    25    9   11 1
    26    9   12 1
    27   11   28 1
@<TRIPOS>MOLECULE
ZINC53682927
   72    76     0     0     0
SMALL
USER_CHARGES

@<TRIPOS>ATOM
      1 C1         -0.0158    1.3119    0.0093 C.ar      1 <0>         0.3544
      2 N1          1.0888    2.0360    0.0026 N.ar      1 <0>        -0.5954
      3 C2          2.2875    1.4625   -0.0119 C.ar      1 <0>         0.5057
      4 C3          2.3582    0.0588   -0.0202 C.ar      1 <0>        -0.1057
      5 C4          1.1547   -0.6659   -0.0126 C.ar      1 <0>         0.3070
      6 N2          0.0021   -0.0041    0.0020 N.ar      1 <0>        -0.5455
      7 N3          1.5110   -1.9908   -0.0227 N.pl3     1 <0>        -0.4671
      8 C5          2.8729   -2.0476   -0.0358 C.2       1 <0>         0.2767
      9 N4          3.3680   -0.8441   -0.0343 N.2       1 <0>        -0.4670
     10 C6          0.5956   -3.1347   -0.0195 C.3       1 <0>         0.3091
     11 H1         -0.2832   -2.9148    0.5866 H         1 <0>         0.1199
     12 C7          0.1775   -3.4928   -1.4629 C.3       1 <0>         0.0369
     13 H2          0.9267   -3.1463   -2.1747 H         1 <0>         0.0832
     14 C8          0.1056   -5.0362   -1.4608 C.3       1 <0>         0.0464
     15 H3          0.8193   -5.4528   -2.1716 H         1 <0>         0.0938
     16 C9          0.4888   -5.4280   -0.0165 C.3       1 <0>         0.0887
     17 H4         -0.4066   -5.5617    0.5906 H         1 <0>         0.1007
     18 O1          1.2661   -4.3138    0.4763 O.3       1 <0>        -0.3376
     19 C10         1.3272   -6.7078   -0.0164 C.3       1 <0>         0.1425
     20 O2          1.5723   -7.1166    1.3308 O.3       1 <0>        -0.7654
     21 P1          2.4256   -8.4288    1.7075 P.3       1 <0>         2.2863
     22 O3          1.8172   -9.6597    0.9990 O.2       1 <0>        -1.0956
     23 O4          3.8887   -8.2411    1.2481 O.3       1 <0>        -1.1004
     24 O5          2.3882   -8.6541    3.3012 O.3       1 <0>        -1.0880
     25 P2          2.7541   -9.8909    4.2648 P.3       1 <0>         2.2830
     26 O6          2.2714  -11.2082    3.6178 O.2       1 <0>        -1.0917
     27 O7          4.2843   -9.9485    4.4702 O.3       1 <0>        -1.0984
     28 O8          2.0285   -9.6949    5.6886 O.3       1 <0>        -0.7622
     29 C11         2.0725  -10.6764    6.7263 C.3       1 <0>         0.1332
     30 C12         1.2842  -10.1739    7.9374 C.3       1 <0>         0.0840
     31 H5          1.6556   -9.1951    8.2410 H         1 <0>         0.1181
     32 C13         1.4229  -11.1716    9.1036 C.3       1 <0>         0.0490
     33 H6          2.0091  -12.0379    8.7969 H         1 <0>         0.1096
     34 C14        -0.0337  -11.5882    9.4218 C.3       1 <0>         0.0323
     35 H7         -0.2833  -12.5317    8.9364 H         1 <0>         0.1048
     36 C15        -0.8468  -10.4192    8.8097 C.3       1 <0>         0.2352
     37 H8         -0.8694   -9.5690    9.4915 H         1 <0>         0.1579
     38 O9         -0.1126  -10.0866    7.6096 O.3       1 <0>        -0.3257
     39 N5         -2.2076  -10.8527    8.4831 N.pl3     1 <0>        -0.3247
     40 C16        -3.2046  -10.2547    9.0435 C.2       1 <0>         0.2929
     41 C17        -4.6228  -10.6794    8.7632 C.3       1 <0>        -0.1345
     42 C18        -4.7302  -11.1610    7.3135 C.3       1 <0>        -0.1151
     43 C19        -3.5699  -12.0797    7.0174 C.2       1 <0>        -0.0999
     44 C20        -2.3770  -11.8574    7.6045 C.2       1 <0>         0.0365
     45 C21        -3.7378  -13.2012    6.0942 C.2       1 <0>         0.5557
     46 O10        -2.8000  -13.9403    5.8576 O.2       1 <0>        -0.5007
     47 N6         -4.9308  -13.4166    5.5055 N.am      1 <0>        -0.8368
     48 O11        -0.2434  -11.6724   10.8328 O.3       1 <0>        -0.5445
     49 O12         2.0233  -10.5382   10.2351 O.3       1 <0>        -0.5323
     50 O13        -1.2191   -5.4762   -1.7672 O.3       1 <0>        -0.5343
     51 O14        -1.0998   -2.9297   -1.7685 O.3       1 <0>        -0.5301
     52 N7          3.4393    2.2295   -0.0193 N.pl3     1 <0>        -0.8204
     53 H9         -0.9693    1.8187    0.0257 H         1 <0>         0.2021
     54 H10         3.4551   -2.9572   -0.0459 H         1 <0>         0.2302
     55 H11         0.7880   -7.4954   -0.5427 H         1 <0>         0.0802
     56 H12         2.2767   -6.5201   -0.5176 H         1 <0>         0.0649
     57 H13         1.6317  -11.6059    6.3660 H         1 <0>         0.0672
     58 H14         3.1085  -10.8536    7.0151 H         1 <0>         0.0835
     59 H15        -3.0194   -9.4372    9.7246 H         1 <0>         0.2167
     60 H16        -4.8998  -11.4900    9.4373 H         1 <0>         0.1436
     61 H17        -5.6673  -11.7006    7.1764 H         1 <0>         0.1229
     62 H18        -4.6984  -10.3040    6.6407 H         1 <0>         0.1197
     63 H19        -1.5429  -12.5012    7.3675 H         1 <0>         0.2016
     64 H20        -5.6781  -12.8276    5.6941 H         1 <0>         0.4028
     65 H21        -5.0422  -14.1606    4.8931 H         1 <0>         0.4185
     66 H22         0.3111  -12.3302   11.2743 H         1 <0>         0.4003
     67 H23         2.1347  -11.1207   10.9989 H         1 <0>         0.3853
     68 H24        -1.5313   -5.2049   -2.6412 H         1 <0>         0.3772
     69 H25        -1.4113   -3.1237   -2.6632 H         1 <0>         0.3794
     70 H26         3.3774    3.1975   -0.0138 H         1 <0>         0.4079
     71 H27         4.3085    1.7992   -0.0299 H         1 <0>         0.4190
     72 H28        -5.2928   -9.8334    8.9162 H         1 <0>         0.1526
@<TRIPOS>BOND
     1    1    6 ar
     2    1    2 ar
     3    1   53 1
     4    2    3 ar
     5    3    4 ar
     6    3   52 1
     7    4    9 1
     8    4    5 ar
     9    5    6 ar
    10    5    7 1
    11    7    8 1
    12    7   10 1
    13    8    9 2
    14    8   54 1
    15   10   11 1
    16   10   18 1
    17   10   12 1
    18   12   13 1
    19   12   14 1
    20   12   51 1
    21   14   15 1
    22   14   16 1
    23   14   50 1
    24   16   17 1
    25   16   18 1
    26   16   19 1
    27   19   20 1
    28   19   55 1
    29   19   56 1
    30   20   21 1
    31   21   22 2
    32   21   23 1
    33   21   24 1
    34   24   25 1
    35   25   26 2
    36   25   27 1
    37   25   28 1
    38   28   29 1
    39   29   30 1
    40   29   57 1
    41   29   58 1
    42   30   31 1
    43   30   38 1
    44   30   32 1
    45   32   33 1
    46   32   34 1
    47   32   49 1
    48   34   35 1
    49   34   36 1
    50   34   48 1
    51   36   37 1
    52   36   38 1
    53   36   39 1
    54   39   44 1
    55   39   40 2
    56   40   41 1
    57   40   59 1
    58   41   42 1
    59   41   60 1
    60   41   72 1
    61   42   43 1
    62   42   61 1
    63   42   62 1
    64   43   44 2
    65   43   45 1
    66   44   63 1
    67   45   46 2
    68   45   47 am
    69   47   64 1
    70   47   65 1
    71   48   66 1
    72   49   67 1
    73   50   68 1
    74   51   69 1
    75   52   70 1
    76   52   71 1
@<TRIPOS>MOLECULE
ZINC19203912
   56    59     0     0     0
SMALL
USER_CHARGES

@<TRIPOS>ATOM
      1 C1          3.4437   -4.9771    0.0368 C.ar      1 <0>        -0.0761
      2 C2          4.3861   -4.5771    0.9651 C.ar      1 <0>        -0.1361
      3 C3          4.2791   -3.3364    1.5665 C.ar      1 <0>        -0.0570
      4 C4          3.2267   -2.4926    1.2411 C.ar      1 <0>        -0.1593
      5 C5          2.2729   -2.8934    0.3097 C.ar      1 <0>         0.1939
      6 C6          2.3926   -4.1423   -0.2915 C.ar      1 <0>        -0.1569
      7 N1          1.1945   -2.0826   -0.0347 N.pl3     1 <0>        -0.5619
      8 C7          1.1709   -0.6955    0.0853 C.ar      1 <0>         0.1955
      9 C8          0.3025    0.0332   -0.7210 C.ar      1 <0>        -0.1146
     10 C9          0.2496    1.4106   -0.6236 C.ar      1 <0>        -0.1450
     11 C10         1.0603    2.0760    0.2765 C.ar      1 <0>        -0.0881
     12 C11         1.9293    1.3621    1.0812 C.ar      1 <0>        -0.0606
     13 C12         1.9888   -0.0211    0.9875 C.ar      1 <0>        -0.1248
     14 S1          3.1095   -0.9136    2.0128 S.3       1 <0>         0.0333
     15 C13        -0.6948    2.1899   -1.5021 C.3       1 <0>         0.5100
     16 F1         -1.9265    2.3299   -0.8538 F         1 <0>        -0.1736
     17 F2         -0.1562    3.4554   -1.7585 F         1 <0>        -0.1731
     18 F3         -0.8783    1.5079   -2.7098 F         1 <0>        -0.1757
     19 C14        -0.0045   -2.7378   -0.5632 C.3       1 <0>         0.1110
     20 C15         0.1003   -2.8415   -2.0861 C.3       1 <0>        -0.1461
     21 C16        -1.1519   -3.5258   -2.6381 C.3       1 <0>         0.0578
     22 N2         -1.0512   -3.6254   -4.1003 N.3       1 <0>        -0.5385
     23 C17        -1.0812   -2.2942   -4.7221 C.3       1 <0>         0.0549
     24 C18        -0.8944   -2.4363   -6.2345 C.3       1 <0>         0.0578
     25 N3         -1.9576   -3.2926   -6.7785 N.3       1 <0>        -0.5305
     26 C19        -1.9276   -4.6238   -6.1566 C.3       1 <0>         0.0544
     27 C20        -2.1144   -4.4817   -4.6442 C.3       1 <0>         0.0587
     28 C21        -1.8569   -3.3922   -8.2407 C.3       1 <0>         0.0540
     29 C22        -3.1092   -4.0765   -8.7927 C.3       1 <0>         0.0795
     30 O1         -4.2499   -3.2515   -8.5476 O.3       1 <0>        -0.5595
     31 H1          3.5314   -5.9437   -0.4370 H         1 <0>         0.1321
     32 H2          5.2051   -5.2329    1.2210 H         1 <0>         0.1329
     33 H3          5.0162   -3.0236    2.2912 H         1 <0>         0.1343
     34 H4          1.6604   -4.4608   -1.0187 H         1 <0>         0.1361
     35 H5         -0.3339   -0.4802   -1.4266 H         1 <0>         0.1444
     36 H6          1.0154    3.1525    0.3511 H         1 <0>         0.1457
     37 H7          2.5627    1.8822    1.7845 H         1 <0>         0.1470
     38 H8         -0.0908   -3.7369   -0.1361 H         1 <0>         0.0906
     39 H9         -0.8850   -2.1522   -0.2987 H         1 <0>         0.0854
     40 H10         0.1866   -1.8424   -2.5133 H         1 <0>         0.0726
     41 H11         0.9808   -3.4271   -2.3506 H         1 <0>         0.0833
     42 H12        -1.2382   -4.5248   -2.2109 H         1 <0>         0.0786
     43 H13        -2.0324   -2.9402   -2.3736 H         1 <0>         0.0388
     44 H14        -2.0403   -1.8186   -4.5173 H         1 <0>         0.0453
     45 H15        -0.2770   -1.6831   -4.3122 H         1 <0>         0.0803
     46 H16        -0.9452   -1.4526   -6.7012 H         1 <0>         0.0803
     47 H17         0.0765   -2.8870   -6.4403 H         1 <0>         0.0414
     48 H18        -2.7318   -5.2348   -6.5666 H         1 <0>         0.0801
     49 H19        -0.9685   -5.0993   -6.3615 H         1 <0>         0.0413
     50 H20        -2.0636   -5.4654   -4.1775 H         1 <0>         0.0795
     51 H21        -3.0853   -4.0310   -4.4385 H         1 <0>         0.0447
     52 H22        -1.7706   -2.3931   -8.6678 H         1 <0>         0.0833
     53 H23        -0.9764   -3.9778   -8.5052 H         1 <0>         0.0490
     54 H24        -2.9959   -4.2305   -9.8658 H         1 <0>         0.0487
     55 H25        -3.2443   -5.0392   -8.2997 H         1 <0>         0.0452
     56 H26        -5.0815   -3.6238   -8.8718 H         1 <0>         0.3752
@<TRIPOS>BOND
     1    1    6 ar
     2    1    2 ar
     3    1   31 1
     4    2    3 ar
     5    2   32 1
     6    3    4 ar
     7    3   33 1
     8    4   14 1
     9    4    5 ar
    10    5    6 ar
    11    5    7 1
    12    6   34 1
    13    7    8 1
    14    7   19 1
    15    8   13 ar
    16    8    9 ar
    17    9   10 ar
    18    9   35 1
    19   10   11 ar
    20   10   15 1
    21   11   12 ar
    22   11   36 1
    23   12   13 ar
    24   12   37 1
    25   13   14 1
    26   15   16 1
    27   15   17 1
    28   15   18 1
    29   19   20 1
    30   19   38 1
    31   19   39 1
    32   20   21 1
    33   20   40 1
    34   20   41 1
    35   21   22 1
    36   21   42 1
    37   21   43 1
    38   22   27 1
    39   22   23 1
    40   23   24 1
    41   23   44 1
    42   23   45 1
    43   24   25 1
    44   24   46 1
    45   24   47 1
    46   25   26 1
    47   25   28 1
    48   26   27 1
    49   26   48 1
    50   26   49 1
    51   27   50 1
    52   27   51 1
    53   28   29 1
    54   28   52 1
    55   28   53 1
    56   29   30 1
    57   29   54 1
    58   29   55 1
    59   30   56 1
@<TRIPOS>MOLECULE
ZINC04676236
   31    32     0     0     0
SMALL
USER_CHARGES

@<TRIPOS>ATOM
      1 C1          0.0652    1.4784   -0.3799 C.3       1 <0>        -0.1170
      2 C2          0.0420   -0.0157   -0.1847 C.ar      1 <0>        -0.0858
      3 C3          0.0426   -0.8563   -1.2823 C.ar      1 <0>        -0.1218
      4 C4          0.0213   -2.2266   -1.1032 C.ar      1 <0>        -0.1227
      5 C5         -0.0001   -2.7567    0.1735 C.ar      1 <0>        -0.1138
      6 C6          0.0002   -1.9164    1.2708 C.ar      1 <0>        -0.0649
      7 C7          0.0258   -0.5457    1.0917 C.ar      1 <0>        -0.0776
      8 C8          0.0314    0.3706    2.2882 C.3       1 <0>        -0.1228
      9 C9         -0.0237   -2.4942    2.6624 C.3       1 <0>         0.0250
     10 H1          0.0553   -1.6881    3.3919 H         1 <0>         0.0967
     11 C10        -1.3360   -3.2506    2.8781 C.3       1 <0>        -0.1397
     12 C11         1.1360   -3.4414    2.8330 C.2       1 <0>         0.0170
     13 C12         1.1559   -4.7401    2.4773 C.2       1 <0>        -0.0533
     14 N1          2.3941   -5.2219    2.8065 N.pl3     1 <0>        -0.5702
     15 H2          2.7133   -6.1281    2.6728 H         1 <0>         0.4206
     16 C13         3.0882   -4.2002    3.3524 C.2       1 <0>         0.1850
     17 N2          2.3311   -3.1372    3.3603 N.2       1 <0>        -0.4881
     18 H3          1.0983    1.8236   -0.4202 H         1 <0>         0.0696
     19 H4         -0.4389    1.7308   -1.3128 H         1 <0>         0.0652
     20 H5         -0.4471    1.9616    0.4521 H         1 <0>         0.0692
     21 H6          0.0593   -0.4422   -2.2796 H         1 <0>         0.1193
     22 H7          0.0211   -2.8833   -1.9607 H         1 <0>         0.1187
     23 H8         -0.0174   -3.8275    0.3134 H         1 <0>         0.1163
     24 H9         -0.9909    0.5222    2.6345 H         1 <0>         0.0699
     25 H10         0.6227   -0.0780    3.0865 H         1 <0>         0.0745
     26 H11         0.4666    1.3301    2.0089 H         1 <0>         0.0684
     27 H12        -1.3532   -3.6685    3.8847 H         1 <0>         0.0611
     28 H13        -2.1747   -2.5655    2.7548 H         1 <0>         0.0633
     29 H14        -1.4149   -4.0566    2.1487 H         1 <0>         0.0569
     30 H15         0.3498   -5.2949    2.0204 H         1 <0>         0.1736
     31 H16         4.1030   -4.2529    3.7179 H         1 <0>         0.2075
@<TRIPOS>BOND
     1    1    2 1
     2    1   18 1
     3    1   19 1
     4    1   20 1
     5    2    7 ar
     6    2    3 ar
     7    3    4 ar
     8    3   21 1
     9    4    5 ar
    10    4   22 1
    11    5    6 ar
    12    5   23 1
    13    6    7 ar
    14    6    9 1
    15    7    8 1
    16    8   24 1
    17    8   25 1
    18    8   26 1
    19    9   10 1
    20    9   11 1
    21    9   12 1
    22   11   27 1
    23   11   28 1
    24   11   29 1
    25   12   17 1
    26   12   13 2
    27   13   14 1
    28   13   30 1
    29   14   15 1
    30   14   16 1
    31   16   17 2
    32   16   31 1
@<TRIPOS>MOLECULE
ZINC04632106
   31    32     0     0     0
SMALL
USER_CHARGES

@<TRIPOS>ATOM
      1 C1         -0.0050    1.2705   -0.1834 C.3       1 <0>        -0.1179
      2 C2         -0.0205   -0.2338   -0.0952 C.ar      1 <0>        -0.0843
      3 C3         -0.0545   -0.9937   -1.2497 C.ar      1 <0>        -0.1170
      4 C4         -0.0688   -2.3733   -1.1688 C.ar      1 <0>        -0.1180
      5 C5         -0.0486   -2.9936    0.0667 C.ar      1 <0>        -0.1134
      6 C6         -0.0137   -2.2340    1.2208 C.ar      1 <0>        -0.0699
      7 C7          0.0049   -0.8539    1.1398 C.ar      1 <0>        -0.0801
      8 C8          0.0483   -0.0257    2.3980 C.3       1 <0>        -0.1212
      9 C9          0.0079   -2.9101    2.5675 C.3       1 <0>         0.0212
     10 H1          0.1485   -2.1618    3.3475 H         1 <0>         0.0888
     11 C10         1.1584   -3.9176    2.6140 C.3       1 <0>        -0.1415
     12 C11        -1.2981   -3.6283    2.7899 C.2       1 <0>        -0.0149
     13 C12        -2.0232   -4.2816    1.8620 C.2       1 <0>        -0.0204
     14 N1         -3.1134   -4.7807    2.4631 N.2       1 <0>        -0.4927
     15 C13        -3.0915   -4.4615    3.7282 C.2       1 <0>         0.1827
     16 N2         -1.9724   -3.7472    3.9752 N.pl3     1 <0>        -0.5677
     17 H2          1.0260    1.6210   -0.2320 H         1 <0>         0.0708
     18 H3         -0.5391    1.5875   -1.0792 H         1 <0>         0.0668
     19 H4         -0.4907    1.6912    0.6971 H         1 <0>         0.0682
     20 H5         -0.0703   -0.5092   -2.2148 H         1 <0>         0.1217
     21 H6         -0.0961   -2.9669   -2.0706 H         1 <0>         0.1235
     22 H7         -0.0604   -4.0717    0.1299 H         1 <0>         0.1248
     23 H8         -0.9624    0.0969    2.7873 H         1 <0>         0.0687
     24 H9          0.6659   -0.5281    3.1425 H         1 <0>         0.0679
     25 H10         0.4727    0.9530    2.1744 H         1 <0>         0.0712
     26 H11         1.1740   -4.4066    3.5880 H         1 <0>         0.0577
     27 H12         1.0179   -4.6658    1.8340 H         1 <0>         0.0642
     28 H13         2.1030   -3.3980    2.4531 H         1 <0>         0.0653
     29 H14        -1.7710   -4.3855    0.8170 H         1 <0>         0.1690
     30 H15        -3.8420   -4.7279    4.4577 H         1 <0>         0.2080
     31 H16        -1.6985   -3.3843    4.8321 H         1 <0>         0.4183
@<TRIPOS>BOND
     1    1    2 1
     2    1   17 1
     3    1   18 1
     4    1   19 1
     5    2    7 ar
     6    2    3 ar
     7    3    4 ar
     8    3   20 1
     9    4    5 ar
    10    4   21 1
    11    5    6 ar
    12    5   22 1
    13    6    7 ar
    14    6    9 1
    15    7    8 1
    16    8   23 1
    17    8   24 1
    18    8   25 1
    19    9   10 1
    20    9   11 1
    21    9   12 1
    22   11   26 1
    23   11   27 1
    24   11   28 1
    25   12   16 1
    26   12   13 2
    27   13   14 1
    28   13   29 1
    29   14   15 2
    30   15   16 1
    31   15   30 1
    32   16   31 1
@<TRIPOS>MOLECULE
ZINC03860469
   25    25     0     0     0
SMALL
USER_CHARGES

@<TRIPOS>ATOM
      1 C1         -0.0187    1.5258    0.0104 C.3       1 <0>         0.0809
      2 C2          0.0021   -0.0041    0.0020 C.3       1 <0>         0.0629
      3 H1          0.5883   -0.3550   -0.8473 H         1 <0>         0.0879
      4 C3         -1.4298   -0.5335   -0.1124 C.3       1 <0>         0.0909
      5 H2         -2.0272   -0.1498    0.7147 H         1 <0>         0.0718
      6 C4         -1.4057   -2.0641   -0.0595 C.3       1 <0>         0.1209
      7 H3         -0.8501   -2.4498   -0.9143 H         1 <0>         0.0852
      8 C5         -0.7236   -2.5086    1.2379 C.3       1 <0>         0.0429
      9 H4         -1.3066   -2.1648    2.0923 H         1 <0>         0.0676
     10 C6          0.6811   -1.9029    1.3002 C.3       1 <0>         0.2647
     11 H5          1.1554   -2.1809    2.2413 H         1 <0>         0.1048
     12 O1          0.5890   -0.4794    1.2152 O.3       1 <0>        -0.3796
     13 O2          1.4614   -2.3960    0.2093 O.3       1 <0>        -0.5577
     14 N1         -0.6292   -3.9743    1.2658 N.3       1 <0>        -0.8291
     15 O3         -2.7437   -2.5648   -0.0939 O.3       1 <0>        -0.5540
     16 O4         -1.9994   -0.1061   -1.3513 O.3       1 <0>        -0.5444
     17 O5          1.3220    2.0204    0.0003 O.3       1 <0>        -0.5618
     18 H6         -0.5459    1.8868   -0.8726 H         1 <0>         0.0641
     19 H7         -0.5289    1.8773    0.9072 H         1 <0>         0.0584
     20 H8          2.3653   -2.0531    0.1857 H         1 <0>         0.3852
     21 H9         -0.1823   -4.2918    2.1128 H         1 <0>         0.3514
     22 H10        -2.8037   -3.5294   -0.0635 H         1 <0>         0.3791
     23 H11        -2.0418    0.8545   -1.4541 H         1 <0>         0.3786
     24 H12         1.3852    2.9853    0.0049 H         1 <0>         0.3847
     25 H13        -1.5386   -4.3973    1.1563 H         1 <0>         0.3446
@<TRIPOS>BOND
     1    1    2 1
     2    1   17 1
     3    1   18 1
     4    1   19 1
     5    2    3 1
     6    2   12 1
     7    2    4 1
     8    4    5 1
     9    4    6 1
    10    4   16 1
    11    6    7 1
    12    6    8 1
    13    6   15 1
    14    8    9 1
    15    8   10 1
    16    8   14 1
    17   10   11 1
    18   10   12 1
    19   10   13 1
    20   13   20 1
    21   14   21 1
    22   14   25 1
    23   15   22 1
    24   16   23 1
    25   17   24 1
@<TRIPOS>MOLECULE
ZINC53073961
   69    73     0     0     0
SMALL
USER_CHARGES

@<TRIPOS>ATOM
      1 C1         -1.1592    1.0840    0.5117 C.ar      1 <0>        -0.1040
      2 C2         -0.3036    2.1137    0.1519 C.ar      1 <0>        -0.0679
      3 C3          1.0412    1.8709   -0.0375 C.ar      1 <0>        -0.1116
      4 C4          1.5476    0.5881    0.1316 C.ar      1 <0>         0.1403
      5 C5          0.6838   -0.4571    0.4960 C.ar      1 <0>        -0.1167
      6 C6         -0.6761   -0.1943    0.6844 C.ar      1 <0>        -0.0461
      7 C7          1.2072   -1.8221    0.6780 C.2       1 <0>         0.5085
      8 O1          2.4007   -2.0322    0.5878 O.2       1 <0>        -0.5116
      9 O2          0.3624   -2.8377    0.9447 O.3       1 <0>        -0.3223
     10 C8          0.9389   -4.1348    1.1093 C.3       1 <0>         0.0769
     11 C9         -0.1666   -5.1507    1.4037 C.3       1 <0>         0.0510
     12 N1         -1.0434   -5.2736    0.2315 N.3       1 <0>        -0.5312
     13 C10        -2.3338   -5.8715    0.5996 C.3       1 <0>         0.0394
     14 C11        -3.2805   -5.8163   -0.6040 C.3       1 <0>         0.1273
     15 N2         -2.6108   -6.4420   -1.7543 N.pl3     1 <0>        -0.6300
     16 C12        -1.2550   -5.9893   -2.1009 C.3       1 <0>         0.1278
     17 C13        -0.3880   -6.0377   -0.8383 C.3       1 <0>         0.0347
     18 C14        -3.2453   -7.4399   -2.4976 C.ar      1 <0>         0.2181
     19 C15        -4.5731   -7.7597   -2.2431 C.ar      1 <0>        -0.1665
     20 C16        -5.1975   -8.7464   -2.9800 C.ar      1 <0>        -0.0673
     21 C17        -4.5024   -9.4165   -3.9703 C.ar      1 <0>        -0.1295
     22 C18        -3.1807   -9.1011   -4.2259 C.ar      1 <0>        -0.1310
     23 C19        -2.5519   -8.1108   -3.4966 C.ar      1 <0>        -0.1543
     24 C20        -2.4270   -9.8346   -5.3053 C.3       1 <0>         0.5068
     25 F1         -3.2689  -10.7790   -5.9024 F         1 <0>        -0.1736
     26 F2         -1.9903   -8.9221   -6.2716 F         1 <0>        -0.1777
     27 F3         -1.3222  -10.4837   -4.7438 F         1 <0>        -0.1772
     28 N3          2.9015    0.3408   -0.0595 N.pl3     1 <0>        -0.6088
     29 C21         3.3461   -0.1967   -1.2590 C.ar      1 <0>         0.3766
     30 C22         2.4729   -0.4104   -2.3141 C.ar      1 <0>        -0.2574
     31 C23         2.9482   -0.9497   -3.5015 C.ar      1 <0>         0.2383
     32 N4          4.2118   -1.2681   -3.6612 N.ar      1 <0>        -0.5054
     33 C24         5.1098   -1.0897   -2.6859 C.ar      1 <0>         0.1702
     34 C25         4.7066   -0.5387   -1.4460 C.ar      1 <0>        -0.1003
     35 C26         5.6533   -0.3485   -0.4298 C.ar      1 <0>        -0.0446
     36 C27         6.9539   -0.6907   -0.6481 C.ar      1 <0>        -0.0784
     37 C28         7.3553   -1.2272   -1.8691 C.ar      1 <0>        -0.0941
     38 C29         6.4592   -1.4363   -2.8724 C.ar      1 <0>        -0.0909
     39 C30         8.8018   -1.5946   -2.0781 C.3       1 <0>         0.5053
     40 F4          9.5285   -1.3066   -0.9179 F         1 <0>        -0.1631
     41 F5          8.8995   -2.9609   -2.3624 F         1 <0>        -0.1642
     42 F6          9.3203   -0.8574   -3.1482 F         1 <0>        -0.1641
     43 H1         -2.2094    1.2861    0.6617 H         1 <0>         0.1476
     44 H2         -0.6924    3.1124    0.0186 H         1 <0>         0.1475
     45 H3          1.7010    2.6787   -0.3177 H         1 <0>         0.1450
     46 H4         -1.3472   -0.9926    0.9648 H         1 <0>         0.1541
     47 H5          1.4599   -4.4195    0.1952 H         1 <0>         0.0690
     48 H6          1.6453   -4.1158    1.9392 H         1 <0>         0.0764
     49 H7          0.2801   -6.1196    1.6265 H         1 <0>         0.0667
     50 H8         -0.7505   -4.8142    2.2604 H         1 <0>         0.0929
     51 H9         -2.1824   -6.9095    0.8960 H         1 <0>         0.0431
     52 H10        -2.7686   -5.3154    1.4302 H         1 <0>         0.0912
     53 H11        -4.1972   -6.3594   -0.3741 H         1 <0>         0.0897
     54 H12        -3.5157   -4.7779   -0.8376 H         1 <0>         0.0734
     55 H13        -0.8325   -6.6468   -2.8607 H         1 <0>         0.0858
     56 H14        -1.2954   -4.9675   -2.4784 H         1 <0>         0.0701
     57 H15         0.5884   -5.6021   -1.0506 H         1 <0>         0.0807
     58 H16        -0.2637   -7.0733   -0.5220 H         1 <0>         0.0444
     59 H17        -5.1163   -7.2373   -1.4694 H         1 <0>         0.1324
     60 H18        -6.2297   -8.9955   -2.7827 H         1 <0>         0.1369
     61 H19        -4.9930  -10.1882   -4.5450 H         1 <0>         0.1373
     62 H20        -1.5209   -7.8617   -3.7000 H         1 <0>         0.1302
     63 H21         3.5358    0.5440    0.6457 H         1 <0>         0.4294
     64 H22         1.4276   -0.1588   -2.2127 H         1 <0>         0.1770
     65 H23         2.2590   -1.1123   -4.3170 H         1 <0>         0.2101
     66 H24         5.3534    0.0674    0.5208 H         1 <0>         0.1569
     67 H25         7.6827   -0.5439    0.1353 H         1 <0>         0.1663
     68 H26         6.7865   -1.8538   -3.8131 H         1 <0>         0.1679
     69 H27         4.5016   -1.6425   -4.5078 H         1 <0>         0.4468
@<TRIPOS>BOND
     1    1    6 ar
     2    1    2 ar
     3    1   43 1
     4    2    3 ar
     5    2   44 1
     6    3    4 ar
     7    3   45 1
     8    4    5 ar
     9    4   28 1
    10    5    6 ar
    11    5    7 1
    12    6   46 1
    13    7    8 2
    14    7    9 1
    15    9   10 1
    16   10   11 1
    17   10   47 1
    18   10   48 1
    19   11   12 1
    20   11   49 1
    21   11   50 1
    22   12   17 1
    23   12   13 1
    24   13   14 1
    25   13   51 1
    26   13   52 1
    27   14   15 1
    28   14   53 1
    29   14   54 1
    30   15   16 1
    31   15   18 1
    32   16   17 1
    33   16   55 1
    34   16   56 1
    35   17   57 1
    36   17   58 1
    37   18   23 ar
    38   18   19 ar
    39   19   20 ar
    40   19   59 1
    41   20   21 ar
    42   20   60 1
    43   21   22 ar
    44   21   61 1
    45   22   23 ar
    46   22   24 1
    47   23   62 1
    48   24   25 1
    49   24   26 1
    50   24   27 1
    51   28   29 1
    52   28   63 1
    53   29   34 ar
    54   29   30 ar
    55   30   31 ar
    56   30   64 1
    57   31   32 ar
    58   31   65 1
    59   32   33 ar
    60   32   69 1
    61   33   38 ar
    62   33   34 ar
    63   34   35 ar
    64   35   36 ar
    65   35   66 1
    66   36   37 ar
    67   36   67 1
    68   37   38 ar
    69   37   39 1
    70   38   68 1
    71   39   40 1
    72   39   41 1
    73   39   42 1
@<TRIPOS>MOLECULE
ZINC12503102
   34    36     0     0     0
SMALL
USER_CHARGES

@<TRIPOS>ATOM
      1 C1         -0.0716    1.4868    0.0073 C.3       1 <0>         0.0820
      2 N1         -0.0831    0.0219    0.0230 N.pl3     1 <0>        -0.9167
      3 C2         -0.1594   -0.7018   -1.1889 C.2       1 <0>         0.0135
      4 C3         -0.8530   -0.1636   -2.2335 C.2       1 <0>         0.3511
      5 N2         -1.0326   -0.8906   -3.3872 N.pl3     1 <0>        -0.6492
      6 C4         -0.5900   -0.3835   -4.6054 C.ar      1 <0>         0.4326
      7 C5          0.1425    0.7988   -4.6346 C.ar      1 <0>        -0.1995
      8 C6          0.5766    1.2913   -5.8521 C.ar      1 <0>         0.0476
      9 C7          0.2621    0.5821   -7.0039 C.ar      1 <0>        -0.1585
     10 C8         -0.4688   -0.5846   -6.9012 C.ar      1 <0>         0.1581
     11 N3         -0.8654   -1.0334   -5.7255 N.ar      1 <0>        -0.4851
     12 O1         -1.3635    1.0842   -2.1346 O.3       1 <0>        -0.4341
     13 C9          0.4557   -1.9619   -1.3577 C.2       1 <0>         0.4821
     14 O2          0.4366   -2.5048   -2.4514 O.2       1 <0>        -0.4531
     15 C10         1.1107   -2.6153   -0.2396 C.2       1 <0>        -0.2601
     16 C11         1.0065   -2.2157    1.0967 C.2       1 <0>        -0.6120
     17 C12         1.7206   -2.9918    1.9768 C.2       1 <0>        -0.0961
     18 C13         2.4415   -4.0422    1.5076 C.2       1 <0>        -0.2349
     19 S1          2.1772   -4.0180   -0.1550 S.3       1 <0>         0.3932
     20 S2          0.0005   -0.8022    1.4699 S.o2      1 <0>         2.6930
     21 O3         -1.3057   -1.2848    1.7534 O.2       1 <0>        -0.9205
     22 O4          0.7377    0.0104    2.3729 O.2       1 <0>        -0.9203
     23 H1          0.4258    1.8558    0.9043 H         1 <0>         0.0979
     24 H2          0.4643    1.8364   -0.8751 H         1 <0>         0.0830
     25 H3         -1.0961    1.8580   -0.0189 H         1 <0>         0.0810
     26 H4         -1.4677   -1.7568   -3.3518 H         1 <0>         0.4430
     27 H5          0.3690    1.3251   -3.7191 H         1 <0>         0.1815
     28 H6          1.1468    2.2069   -5.9058 H         1 <0>         0.1812
     29 H7          0.5857    0.9399   -7.9702 H         1 <0>         0.1877
     30 H8         -0.7156   -1.1394   -7.7944 H         1 <0>         0.2145
     31 H9         -1.7729    1.4074   -2.9488 H         1 <0>         0.4060
     32 H10         1.7090   -2.7681    3.0333 H         1 <0>         0.1540
     33 H11         3.0473   -4.7353    2.0723 H         1 <0>         0.2086
     34 H12        -1.3745   -1.8579   -5.6811 H         1 <0>         0.4482
@<TRIPOS>BOND
     1    1    2 1
     2    1   23 1
     3    1   24 1
     4    1   25 1
     5    2   20 1
     6    2    3 1
     7    3    4 2
     8    3   13 1
     9    4    5 1
    10    4   12 1
    11    5    6 1
    12    5   26 1
    13    6   11 ar
    14    6    7 ar
    15    7    8 ar
    16    7   27 1
    17    8    9 ar
    18    8   28 1
    19    9   10 ar
    20    9   29 1
    21   10   11 ar
    22   10   30 1
    23   11   34 1
    24   12   31 1
    25   13   14 2
    26   13   15 1
    27   15   19 1
    28   15   16 2
    29   16   17 1
    30   16   20 1
    31   17   18 2
    32   17   32 1
    33   18   19 1
    34   18   33 1
    35   20   21 2
    36   20   22 2
@<TRIPOS>MOLECULE
ZINC12503102
   33    35     0     0     0
SMALL
USER_CHARGES

@<TRIPOS>ATOM
      1 C1          0.5671    1.3465   -0.1614 C.3       1 <0>         0.0941
      2 N1          0.8344   -0.0816   -0.3491 N.pl3     1 <0>        -0.9169
      3 C2          0.4587   -0.7212   -1.5505 C.2       1 <0>        -0.1200
      4 C3         -0.6502   -0.2440   -2.2418 C.2       1 <0>         0.4478
      5 N2         -1.0174   -0.8161   -3.3912 N.2       1 <0>        -0.6577
      6 C4         -1.7558   -1.9293   -3.3772 C.2       1 <0>         0.4984
      7 C5         -2.2411   -2.4372   -2.1615 C.2       1 <0>        -0.2435
      8 C6         -2.9945   -3.5754   -2.1658 C.2       1 <0>         0.0061
      9 C7         -3.2700   -4.2162   -3.3809 C.2       1 <0>        -0.2252
     10 C8         -2.7920   -3.7092   -4.5418 C.2       1 <0>         0.1454
     11 N3         -2.0461   -2.5746   -4.5476 N.pl3     1 <0>        -0.5575
     12 O1         -1.3575    0.8010   -1.7491 O.3       1 <0>        -0.4636
     13 C9          1.1583   -1.8180   -2.0756 C.2       1 <0>         0.4613
     14 O2          0.8082   -2.3077   -3.1404 O.2       1 <0>        -0.4608
     15 C10         2.2949   -2.3761   -1.3653 C.2       1 <0>        -0.1984
     16 C11         2.6270   -2.0893   -0.0376 C.2       1 <0>        -0.6383
     17 C12         3.7490   -2.7382    0.4186 C.2       1 <0>        -0.0923
     18 C13         4.4220   -3.5719   -0.4141 C.2       1 <0>        -0.2612
     19 S1          3.5552   -3.5083   -1.8561 S.3       1 <0>         0.3401
     20 S2          1.5899   -0.9567    0.8523 S.o2      1 <0>         2.7022
     21 O3          0.5891   -1.7302    1.5000 O.2       1 <0>        -0.9404
     22 O4          2.4464   -0.0613    1.5478 O.2       1 <0>        -0.9460
     23 H1          1.3324    1.7776    0.4840 H         1 <0>         0.0799
     24 H2          0.5820    1.8491   -1.1285 H         1 <0>         0.0805
     25 H3         -0.4120    1.4752    0.2999 H         1 <0>         0.0669
     26 H4         -2.0203   -1.9326   -1.2325 H         1 <0>         0.1504
     27 H5         -3.3751   -3.9793   -1.2392 H         1 <0>         0.1434
     28 H6         -3.8652   -5.1174   -3.3916 H         1 <0>         0.1530
     29 H7         -3.0097   -4.2103   -5.4734 H         1 <0>         0.1782
     30 H8         -2.1096    1.0609   -2.2985 H         1 <0>         0.4009
     31 H9          4.0921   -2.5862    1.4314 H         1 <0>         0.1442
     32 H10         5.3119   -4.1454   -0.2006 H         1 <0>         0.1987
     33 H11        -1.7139   -2.2210   -5.3875 H         1 <0>         0.4302
@<TRIPOS>BOND
     1    1    2 1
     2    1   23 1
     3    1   24 1
     4    1   25 1
     5    2   20 1
     6    2    3 1
     7    3    4 2
     8    3   13 1
     9    4    5 1
    10    4   12 1
    11    5    6 2
    12    6   11 1
    13    6    7 1
    14    7    8 2
    15    7   26 1
    16    8    9 1
    17    8   27 1
    18    9   10 2
    19    9   28 1
    20   10   11 1
    21   10   29 1
    22   11   33 1
    23   12   30 1
    24   13   14 2
    25   13   15 1
    26   15   19 1
    27   15   16 2
    28   16   17 1
    29   16   20 1
    30   17   18 2
    31   17   31 1
    32   18   19 1
    33   18   32 1
    34   20   21 2
    35   20   22 2
@<TRIPOS>MOLECULE
ZINC12503300
   44    46     0     0     0
SMALL
USER_CHARGES

@<TRIPOS>ATOM
      1 C1          0.5868    1.4364   -0.4498 C.3       1 <0>         0.0257
      2 O1          0.5211    0.0101   -0.3911 O.3       1 <0>        -0.2961
      3 C2          1.1293   -0.5921    0.6629 C.ar      1 <0>         0.1497
      4 C3          1.7663    0.1723    1.6160 C.ar      1 <0>        -0.1829
      5 C4          2.3919   -0.4484    2.7003 C.ar      1 <0>         0.0430
      6 C5          2.3693   -1.8535    2.8154 C.ar      1 <0>        -0.0843
      7 C6          1.7276   -2.6185    1.8567 C.ar      1 <0>         0.0181
      8 C7          1.1016   -1.9939    0.7805 C.ar      1 <0>        -0.2067
      9 C8          0.4124   -2.8043   -0.2410 C.2       1 <0>         0.5827
     10 O2         -0.1310   -2.2608   -1.1833 O.2       1 <0>        -0.5214
     11 N1          0.3849   -4.1472   -0.1300 N.am      1 <0>        -0.7423
     12 C9         -0.2997   -4.9522   -1.1447 C.3       1 <0>         0.1084
     13 C10        -0.0769   -6.4375   -0.8530 C.3       1 <0>         0.0086
     14 H1         -0.4169   -6.6722    0.1557 H         1 <0>         0.1464
     15 C11         1.4207   -6.7816   -0.9956 C.3       1 <0>        -0.1392
     16 C12         1.3954   -8.1860   -1.6542 C.3       1 <0>        -0.1411
     17 C13         0.1677   -8.0699   -2.5918 C.3       1 <0>        -0.0076
     18 N2         -0.8122   -7.2570   -1.8336 N.4       1 <0>        -0.3808
     19 C14        -1.5492   -6.3823   -2.7554 C.3       1 <0>         0.0167
     20 C15        -2.3736   -7.2237   -3.6953 C.2       1 <0>        -0.2324
     21 C16        -3.6638   -7.0200   -3.7962 C.2       1 <0>        -0.1068
     22 N3          3.0624   -2.1312    3.9709 N.2       1 <0>        -0.3643
     23 N4          3.4515   -1.0149    4.4823 N.2       1 <0>        -0.0835
     24 N5          3.0811   -0.0085    3.7721 N.2       1 <0>        -0.3927
     25 H2          1.6296    1.7505   -0.4948 H         1 <0>         0.0517
     26 H3          0.0628    1.7880   -1.3385 H         1 <0>         0.0927
     27 H4          0.1182    1.8586    0.4392 H         1 <0>         0.0517
     28 H5          1.7822    1.2484    1.5251 H         1 <0>         0.1231
     29 H6          1.7099   -3.6948    1.9443 H         1 <0>         0.1143
     30 H7          0.8184   -4.5807    0.6217 H         1 <0>         0.4042
     31 H8         -1.3674   -4.7337   -1.1223 H         1 <0>         0.0832
     32 H9          0.0998   -4.7114   -2.1298 H         1 <0>         0.0887
     33 H10         1.9217   -6.0615   -1.6426 H         1 <0>         0.1048
     34 H11         1.9014   -6.8229   -0.0182 H         1 <0>         0.1176
     35 H12         2.3066   -8.3663   -2.2246 H         1 <0>         0.1173
     36 H13         1.2437   -8.9650   -0.9070 H         1 <0>         0.0989
     37 H14         0.4441   -7.5666   -3.5183 H         1 <0>         0.1322
     38 H15        -0.2430   -9.0571   -2.8032 H         1 <0>         0.1339
     39 H16        -2.2058   -5.7248   -2.1855 H         1 <0>         0.1368
     40 H17        -0.8432   -5.7821   -3.3294 H         1 <0>         0.1393
     41 H18        -1.9008   -7.9946   -4.2857 H         1 <0>         0.1317
     42 H19        -4.1365   -6.2491   -3.2058 H         1 <0>         0.1121
     43 H20        -4.2546   -7.6230   -4.4697 H         1 <0>         0.1211
     44 H21        -1.4593   -7.8633   -1.3522 H         1 <0>         0.4273
@<TRIPOS>BOND
     1    1    2 1
     2    1   25 1
     3    1   26 1
     4    1   27 1
     5    2    3 1
     6    3    8 ar
     7    3    4 ar
     8    4    5 ar
     9    4   28 1
    10    5   24 1
    11    5    6 ar
    12    6    7 ar
    13    6   22 1
    14    7    8 ar
    15    7   29 1
    16    8    9 1
    17    9   10 2
    18    9   11 am
    19   11   12 1
    20   11   30 1
    21   12   13 1
    22   12   31 1
    23   12   32 1
    24   13   14 1
    25   13   18 1
    26   13   15 1
    27   15   16 1
    28   15   33 1
    29   15   34 1
    30   16   17 1
    31   16   35 1
    32   16   36 1
    33   17   18 1
    34   17   37 1
    35   17   38 1
    36   18   19 1
    37   18   44 1
    38   19   20 1
    39   19   39 1
    40   19   40 1
    41   20   21 2
    42   20   41 1
    43   21   42 1
    44   21   43 1
    45   22   23 1
    46   23   24 2
@<TRIPOS>MOLECULE
ZINC19632614
   57    60     0     0     0
SMALL
USER_CHARGES

@<TRIPOS>ATOM
      1 C1          0.4957    0.6763   -1.2292 C.3       1 <0>         0.0097
      2 O1          0.3708   -0.6717   -0.7717 O.3       1 <0>        -0.2780
      3 C2         -0.8861   -1.1806   -0.6878 C.ar      1 <0>         0.2175
      4 C3         -1.9704   -0.3964   -1.0449 C.ar      1 <0>        -0.2163
      5 C4         -3.2517   -0.9159   -0.9595 C.ar      1 <0>         0.2109
      6 C5         -3.4429   -2.2355   -0.5110 C.ar      1 <0>        -0.1696
      7 C6         -2.3484   -3.0191   -0.1533 C.ar      1 <0>        -0.1343
      8 C7         -1.0748   -2.4922   -0.2475 C.ar      1 <0>         0.1172
      9 O2         -0.0002   -3.2528    0.0951 O.3       1 <0>        -0.2792
     10 C8         -0.2516   -4.6209    0.4223 C.3       1 <0>         0.0522
     11 C9          1.0783   -5.3474    0.6333 C.3       1 <0>        -0.1519
     12 C10         0.8148   -6.8369    0.8638 C.3       1 <0>        -0.0151
     13 N1          2.0946   -7.5463    0.9928 N.4       1 <0>        -0.3820
     14 C11         2.8253   -7.4743   -0.2800 C.3       1 <0>        -0.0514
     15 C12         4.1584   -8.2140   -0.1429 C.3       1 <0>         0.0361
     16 O3          3.9086   -9.5683    0.2435 O.3       1 <0>        -0.3530
     17 C13         3.1775   -9.6905    1.4668 C.3       1 <0>         0.0362
     18 C14         1.8426   -8.9535    1.3327 C.3       1 <0>        -0.0460
     19 C15        -4.8247   -2.7457   -0.4360 C.cat     1 <0>         0.5319
     20 N2         -5.0725   -3.9771   -0.0222 N.pl3     1 <0>        -0.5604
     21 C16        -4.2014   -4.6012    0.8249 C.ar      1 <0>         0.0974
     22 C17        -3.7272   -3.9360    1.9592 C.ar      1 <0>        -0.0816
     23 C18        -2.8483   -4.5713    2.8111 C.ar      1 <0>        -0.1175
     24 C19        -2.4343   -5.8665    2.5448 C.ar      1 <0>         0.1198
     25 C20        -2.9002   -6.5323    1.4212 C.ar      1 <0>        -0.0716
     26 C21        -3.7851   -5.9094    0.5642 C.ar      1 <0>        -0.0825
     27 Cl1        -2.3754   -8.1547    1.0956 Cl        1 <0>        -0.0183
     28 F1         -1.5728   -6.4831    3.3830 F         1 <0>        -0.1112
     29 N3         -5.8317   -1.9199   -0.8014 N.2       1 <0>        -0.5495
     30 C22        -5.6076   -0.7054   -1.2106 C.2       1 <0>         0.4712
     31 N4         -4.3672   -0.1695   -1.3053 N.pl3     1 <0>        -0.5812
     32 H1         -4.2589    0.7427   -1.6168 H         1 <0>         0.4503
     33 H2          1.5487    0.9571   -1.2491 H         1 <0>         0.1245
     34 H3          0.0784    0.7596   -2.2327 H         1 <0>         0.0727
     35 H4         -0.0447    1.3405   -0.5547 H         1 <0>         0.0731
     36 H5         -1.8176    0.6161   -1.3882 H         1 <0>         0.1754
     37 H6         -2.4939   -4.0322    0.1915 H         1 <0>         0.1665
     38 H7         -0.8431   -4.6731    1.3364 H         1 <0>         0.0710
     39 H8         -0.7992   -5.0947   -0.3924 H         1 <0>         0.0775
     40 H9          1.7051   -5.2217   -0.2495 H         1 <0>         0.1094
     41 H10         1.5867   -4.9297    1.5023 H         1 <0>         0.1099
     42 H11         0.2340   -6.9660    1.7771 H         1 <0>         0.1336
     43 H12         0.2581   -7.2423    0.0189 H         1 <0>         0.1350
     44 H13         2.2311   -7.9385   -1.0671 H         1 <0>         0.1411
     45 H14         3.0128   -6.4308   -0.5330 H         1 <0>         0.1444
     46 H15         4.6829   -8.1989   -1.0982 H         1 <0>         0.1447
     47 H16         4.7692   -7.7256    0.6163 H         1 <0>         0.0840
     48 H17         2.9923  -10.7439    1.6765 H         1 <0>         0.1456
     49 H18         3.7548   -9.2526    2.2811 H         1 <0>         0.0847
     50 H19         1.3007   -9.0081    2.2769 H         1 <0>         0.1448
     51 H20         1.2488   -9.4172    0.5450 H         1 <0>         0.1398
     52 H21        -4.0484   -2.9261    2.1679 H         1 <0>         0.1559
     53 H22        -2.4815   -4.0580    3.6876 H         1 <0>         0.1719
     54 H23        -4.1514   -6.4303   -0.3081 H         1 <0>         0.1696
     55 H24        -6.4530   -0.0939   -1.4891 H         1 <0>         0.2492
     56 H25        -5.8728   -4.4370   -0.3202 H         1 <0>         0.4487
     57 H26         2.6450   -7.1175    1.7216 H         1 <0>         0.4269
@<TRIPOS>BOND
     1    1    2 1
     2    1   33 1
     3    1   34 1
     4    1   35 1
     5    2    3 1
     6    3    8 ar
     7    3    4 ar
     8    4    5 ar
     9    4   36 1
    10    5   31 1
    11    5    6 ar
    12    6    7 ar
    13    6   19 1
    14    7    8 ar
    15    7   37 1
    16    8    9 1
    17    9   10 1
    18   10   11 1
    19   10   38 1
    20   10   39 1
    21   11   12 1
    22   11   40 1
    23   11   41 1
    24   12   13 1
    25   12   42 1
    26   12   43 1
    27   13   18 1
    28   13   14 1
    29   13   57 1
    30   14   15 1
    31   14   44 1
    32   14   45 1
    33   15   16 1
    34   15   46 1
    35   15   47 1
    36   16   17 1
    37   17   18 1
    38   17   48 1
    39   17   49 1
    40   18   50 1
    41   18   51 1
    42   19   20 2
    43   19   29 1
    44   20   21 1
    45   20   56 1
    46   21   26 ar
    47   21   22 ar
    48   22   23 ar
    49   22   52 1
    50   23   24 ar
    51   23   53 1
    52   24   25 ar
    53   24   28 1
    54   25   26 ar
    55   25   27 1
    56   26   54 1
    57   29   30 2
    58   30   31 1
    59   30   55 1
    60   31   32 1
@<TRIPOS>MOLECULE
ZINC12503303
   44    46     0     0     0
SMALL
USER_CHARGES

@<TRIPOS>ATOM
      1 C1         -0.0173    1.4248    0.0099 C.3       1 <0>         0.0254
      2 O1          0.0021   -0.0041    0.0020 O.3       1 <0>        -0.2955
      3 C2          0.6252   -0.6178    1.0405 C.ar      1 <0>         0.1503
      4 C3          1.1965    0.1377    2.0413 C.ar      1 <0>        -0.1808
      5 C4          1.8376   -0.4949    3.1096 C.ar      1 <0>         0.0441
      6 C5          1.8977   -1.9027    3.1599 C.ar      1 <0>        -0.0832
      7 C6          1.3219   -2.6587    2.1535 C.ar      1 <0>         0.0123
      8 C7          0.6800   -2.0227    1.0934 C.ar      1 <0>        -0.2054
      9 C8          0.0608   -2.8239    0.0211 C.2       1 <0>         0.5801
     10 O2         -0.4963   -2.2701   -0.9071 O.2       1 <0>        -0.5084
     11 N1          0.1123   -4.1698    0.0701 N.am      1 <0>        -0.7638
     12 C9         -0.5029   -4.9656   -0.9950 C.3       1 <0>         0.1035
     13 C10        -0.3036   -6.4536   -0.6997 C.3       1 <0>         0.0104
     14 H1         -0.8526   -6.7295    0.2006 H         1 <0>         0.1457
     15 C11        -0.7970   -7.2965   -1.8945 C.3       1 <0>        -0.1301
     16 C12         0.5080   -7.5818   -2.6835 C.3       1 <0>        -0.1433
     17 C13         1.5384   -7.7392   -1.5376 C.3       1 <0>        -0.0066
     18 N2          1.1312   -6.7416   -0.5204 N.4       1 <0>        -0.3939
     19 C14         1.3626   -7.2811    0.8262 C.3       1 <0>         0.0296
     20 C15         2.8425   -7.4587    1.0487 C.2       1 <0>        -0.2483
     21 C16         3.4215   -6.8979    2.0813 C.2       1 <0>        -0.0917
     22 N3          2.5840   -2.1925    4.3165 N.2       1 <0>        -0.3672
     23 N4          2.8951   -1.0802    4.8866 N.2       1 <0>        -0.0810
     24 N5          2.4783   -0.0654    4.2151 N.2       1 <0>        -0.3907
     25 H2          1.0053    1.8021    0.0021 H         1 <0>         0.0521
     26 H3         -0.5445    1.7859   -0.8732 H         1 <0>         0.0942
     27 H4         -0.5275    1.7763    0.9067 H         1 <0>         0.0525
     28 H5          1.1492    1.2159    1.9999 H         1 <0>         0.1243
     29 H6          1.3676   -3.7370    2.1915 H         1 <0>         0.1064
     30 H7          0.5567   -4.6115    0.8106 H         1 <0>         0.3909
     31 H8         -1.5691   -4.7445   -1.0441 H         1 <0>         0.1108
     32 H9         -0.0363   -4.7187   -1.9486 H         1 <0>         0.0916
     33 H10        -1.2498   -8.2260   -1.5495 H         1 <0>         0.1041
     34 H11        -1.4992   -6.7274   -2.5038 H         1 <0>         0.1169
     35 H12         0.4220   -8.5025   -3.2606 H         1 <0>         0.1174
     36 H13         0.7662   -6.7415   -3.3280 H         1 <0>         0.0996
     37 H14         1.4912   -8.7452   -1.1205 H         1 <0>         0.1326
     38 H15         2.5439   -7.5242   -1.8992 H         1 <0>         0.1329
     39 H16         0.9641   -6.5893    1.5682 H         1 <0>         0.1272
     40 H17         0.8625   -8.2448    0.9224 H         1 <0>         0.1354
     41 H18         3.4257   -8.0483    0.3569 H         1 <0>         0.1318
     42 H19         2.8383   -6.3082    2.7732 H         1 <0>         0.1174
     43 H20         4.4821   -7.0251    2.2408 H         1 <0>         0.1234
     44 H21         1.6654   -5.8943   -0.6419 H         1 <0>         0.4268
@<TRIPOS>BOND
     1    1    2 1
     2    1   25 1
     3    1   26 1
     4    1   27 1
     5    2    3 1
     6    3    8 ar
     7    3    4 ar
     8    4    5 ar
     9    4   28 1
    10    5   24 1
    11    5    6 ar
    12    6    7 ar
    13    6   22 1
    14    7    8 ar
    15    7   29 1
    16    8    9 1
    17    9   10 2
    18    9   11 am
    19   11   12 1
    20   11   30 1
    21   12   13 1
    22   12   31 1
    23   12   32 1
    24   13   14 1
    25   13   18 1
    26   13   15 1
    27   15   16 1
    28   15   33 1
    29   15   34 1
    30   16   17 1
    31   16   35 1
    32   16   36 1
    33   17   18 1
    34   17   37 1
    35   17   38 1
    36   18   19 1
    37   18   44 1
    38   19   20 1
    39   19   39 1
    40   19   40 1
    41   20   21 2
    42   20   41 1
    43   21   42 1
    44   21   43 1
    45   22   23 1
    46   23   24 2
@<TRIPOS>MOLECULE
ZINC19166991
   23    23     0     0     0
SMALL
USER_CHARGES

@<TRIPOS>ATOM
      1 C1         -0.0167    1.3781    0.0096 C.ar      1 <0>        -0.1022
      2 C2          1.1709    2.0855    0.0021 C.ar      1 <0>        -0.1138
      3 C3          2.3773    1.4107   -0.0130 C.ar      1 <0>        -0.1080
      4 C4          2.3960    0.0285   -0.0201 C.ar      1 <0>        -0.1109
      5 C5          1.2084   -0.6789   -0.0117 C.ar      1 <0>        -0.1101
      6 C6          0.0021   -0.0041    0.0020 C.ar      1 <0>        -0.1145
      7 C7          3.7112   -0.7071   -0.0376 C.3       1 <0>        -0.0983
      8 C8          4.1714   -0.9633    1.3989 C.3       1 <0>         0.0040
      9 N1          5.4533   -1.6804    1.3819 N.4       1 <0>        -0.3650
     10 N2          5.8907   -1.9238    2.7470 N.3       1 <0>        -0.6467
     11 H1         -0.9591    1.9053    0.0259 H         1 <0>         0.1305
     12 H2          1.1563    3.1654    0.0076 H         1 <0>         0.1306
     13 H3          3.3051    1.9634   -0.0196 H         1 <0>         0.1257
     14 H4          1.2231   -1.7588   -0.0176 H         1 <0>         0.1238
     15 H5         -0.9258   -0.5567    0.0082 H         1 <0>         0.1300
     16 H6          3.5884   -1.6586   -0.5549 H         1 <0>         0.0954
     17 H7          4.4573   -0.1052   -0.5563 H         1 <0>         0.0985
     18 H8          4.2941   -0.0118    1.9163 H         1 <0>         0.1425
     19 H9          3.4252   -1.5652    1.9176 H         1 <0>         0.1307
     20 H10         5.3397   -2.5612    0.9030 H         1 <0>         0.4079
     21 H11         5.1869   -2.4250    3.2682 H         1 <0>         0.4018
     22 H12         6.7712   -2.4163    2.7623 H         1 <0>         0.4020
     23 H13         6.1440   -1.1232    0.9018 H         1 <0>         0.4462
@<TRIPOS>BOND
     1    1    6 ar
     2    1    2 ar
     3    1   11 1
     4    2    3 ar
     5    2   12 1
     6    3    4 ar
     7    3   13 1
     8    4    5 ar
     9    4    7 1
    10    5    6 ar
    11    5   14 1
    12    6   15 1
    13    7    8 1
    14    7   16 1
    15    7   17 1
    16    8    9 1
    17    8   18 1
    18    8   19 1
    19    9   10 1
    20    9   20 1
    21    9   23 1
    22   10   21 1
    23   10   22 1
@<TRIPOS>MOLECULE
ZINC22066984
   24    24     0     0     0
SMALL
USER_CHARGES

@<TRIPOS>ATOM
      1 C1         -3.2257    0.3277   -1.7864 C.ar      1 <0>        -0.1047
      2 C2         -4.1983    0.3462   -2.7665 C.ar      1 <0>        -0.1011
      3 C3         -4.7085   -0.8421   -3.2595 C.ar      1 <0>        -0.0554
      4 C4         -4.2461   -2.0521   -2.7722 C.ar      1 <0>        -0.0899
      5 C5         -3.2737   -2.0770   -1.7921 C.ar      1 <0>        -0.0668
      6 C6         -2.7594   -0.8856   -1.2951 C.ar      1 <0>        -0.0611
      7 S1         -1.5181   -0.9134   -0.0449 S.3       1 <0>        -0.0091
      8 C7         -1.0885   -2.6691    0.1082 C.3       1 <0>        -1.2664
      9 P1         -0.0070   -3.1532   -1.2772 P.3       1 <0>         2.2551
     10 O1          1.3502   -2.4262   -1.1494 O.2       1 <0>        -1.0725
     11 O2          0.2313   -4.7450   -1.2411 O.3       1 <0>        -0.8890
     12 O3         -0.6764   -2.7628   -2.6139 O.3       1 <0>        -1.0873
     13 P2         -0.2168   -2.9462    1.6851 P.3       1 <0>         2.2873
     14 O4         -1.0958   -2.4480    2.8539 O.2       1 <0>        -1.1004
     15 O5          0.0650   -4.4552    1.8595 O.3       1 <0>        -1.0937
     16 O6          1.1753   -2.1376    1.6780 O.3       1 <0>        -0.8743
     17 Cl1        -5.9316   -0.8148   -4.4912 Cl        1 <0>        -0.1007
     18 H1         -2.8247    1.2552   -1.4052 H         1 <0>         0.1294
     19 H2         -4.5614    1.2889   -3.1484 H         1 <0>         0.1269
     20 H3         -4.6465   -2.9777   -3.1586 H         1 <0>         0.1256
     21 H4         -2.9135   -3.0216   -1.4120 H         1 <0>         0.1211
     22 H5         -1.9983   -3.2690    0.0857 H         1 <0>         0.1261
     23 H6          1.6934   -2.2393    2.4881 H         1 <0>         0.3992
     24 H7          0.7992   -5.0739   -1.9514 H         1 <0>         0.4018
@<TRIPOS>BOND
     1    1    6 ar
     2    1    2 ar
     3    1   18 1
     4    2    3 ar
     5    2   19 1
     6    3    4 ar
     7    3   17 1
     8    4    5 ar
     9    4   20 1
    10    5    6 ar
    11    5   21 1
    12    6    7 1
    13    7    8 1
    14    8    9 1
    15    8   13 1
    16    8   22 1
    17    9   10 2
    18    9   11 1
    19    9   12 1
    20   11   24 1
    21   13   14 2
    22   13   15 1
    23   13   16 1
    24   16   23 1
@<TRIPOS>MOLECULE
ZINC03876173
   37    39     0     0     0
SMALL
USER_CHARGES

@<TRIPOS>ATOM
      1 C1          0.0153    1.4472    0.4822 C.3       1 <0>        -0.1537
      2 C2         -0.0038   -0.0722    0.3036 C.3       1 <0>        -0.1105
      3 C3         -1.4333   -0.5336    0.0129 C.3       1 <0>         0.0303
      4 H1         -2.1061   -0.1311    0.7701 H         1 <0>         0.0893
      5 C4         -1.8541   -0.0389   -1.3470 C.ar      1 <0>        -0.0629
      6 C5         -1.1688   -0.4505   -2.4747 C.ar      1 <0>        -0.1139
      7 C6         -1.5548    0.0032   -3.7221 C.ar      1 <0>        -0.1224
      8 C7         -2.6264    0.8683   -3.8418 C.ar      1 <0>        -0.1258
      9 C8         -3.3122    1.2792   -2.7141 C.ar      1 <0>        -0.1191
     10 C9         -2.9289    0.8220   -1.4671 C.ar      1 <0>        -0.1061
     11 C10        -1.4904   -2.0393    0.0395 C.2       1 <0>        -0.3171
     12 C11        -2.7279   -2.7004    0.1877 C.2       1 <0>         0.4367
     13 O1         -3.7712   -2.0770    0.2965 O.2       1 <0>        -0.4635
     14 C12        -2.7100   -4.1773    0.2055 C.ar      1 <0>        -0.2151
     15 C13        -3.8836   -4.9151    0.3471 C.ar      1 <0>        -0.0312
     16 C14        -3.8239   -6.2918    0.3584 C.ar      1 <0>        -0.1435
     17 C15        -2.6043   -6.9400    0.2302 C.ar      1 <0>        -0.0594
     18 C16        -1.4367   -6.2205    0.0895 C.ar      1 <0>        -0.1370
     19 C17        -1.4759   -4.8318    0.0753 C.ar      1 <0>         0.1505
     20 O2         -0.3452   -4.1077   -0.0623 O.3       1 <0>        -0.2591
     21 C18        -0.3511   -2.7690   -0.0848 C.2       1 <0>         0.3553
     22 O3          0.8223   -2.1182   -0.2318 O.3       1 <0>        -0.3987
     23 H2          1.0337    1.7759    0.6892 H         1 <0>         0.0542
     24 H3         -0.3422    1.9248   -0.4301 H         1 <0>         0.0558
     25 H4         -0.6320    1.7233    1.3146 H         1 <0>         0.0529
     26 H5          0.6435   -0.3484   -0.5288 H         1 <0>         0.0879
     27 H6          0.3537   -0.5498    1.2158 H         1 <0>         0.0658
     28 H7         -0.3316   -1.1264   -2.3812 H         1 <0>         0.1146
     29 H8         -1.0190   -0.3178   -4.6032 H         1 <0>         0.1183
     30 H9         -2.9275    1.2234   -4.8163 H         1 <0>         0.1191
     31 H10        -4.1492    1.9553   -2.8076 H         1 <0>         0.1205
     32 H11        -3.4671    1.1401   -0.5865 H         1 <0>         0.1208
     33 H12        -4.8336   -4.4114    0.4476 H         1 <0>         0.1443
     34 H13        -4.7305   -6.8685    0.4678 H         1 <0>         0.1385
     35 H14        -2.5690   -8.0194    0.2411 H         1 <0>         0.1430
     36 H15        -0.4927   -6.7358   -0.0092 H         1 <0>         0.1440
     37 H16         1.5884   -2.7025   -0.3141 H         1 <0>         0.3972
@<TRIPOS>BOND
     1    1    2 1
     2    1   23 1
     3    1   24 1
     4    1   25 1
     5    2    3 1
     6    2   26 1
     7    2   27 1
     8    3    4 1
     9    3    5 1
    10    3   11 1
    11    5   10 ar
    12    5    6 ar
    13    6    7 ar
    14    6   28 1
    15    7    8 ar
    16    7   29 1
    17    8    9 ar
    18    8   30 1
    19    9   10 ar
    20    9   31 1
    21   10   32 1
    22   11   21 2
    23   11   12 1
    24   12   13 2
    25   12   14 1
    26   14   19 ar
    27   14   15 ar
    28   15   16 ar
    29   15   33 1
    30   16   17 ar
    31   16   34 1
    32   17   18 ar
    33   17   35 1
    34   18   19 ar
    35   18   36 1
    36   19   20 1
    37   20   21 1
    38   21   22 1
    39   22   37 1
@<TRIPOS>MOLECULE
ZINC03876174
   37    39     0     0     0
SMALL
USER_CHARGES

@<TRIPOS>ATOM
      1 C1         -0.5284    1.7918    0.1383 C.3       1 <0>        -0.1460
      2 C2         -0.1642    0.3061    0.1711 C.3       1 <0>        -0.1191
      3 C3         -1.4333   -0.5336    0.0129 C.3       1 <0>         0.0288
      4 H1         -2.0390   -0.4503    0.9153 H         1 <0>         0.0934
      5 C4         -1.0569   -1.9761   -0.2080 C.ar      1 <0>        -0.0705
      6 C5         -0.1535   -2.3106   -1.1994 C.ar      1 <0>        -0.1193
      7 C6          0.1918   -3.6337   -1.4021 C.ar      1 <0>        -0.1238
      8 C7         -0.3660   -4.6222   -0.6131 C.ar      1 <0>        -0.1255
      9 C8         -1.2687   -4.2876    0.3789 C.ar      1 <0>        -0.1199
     10 C9         -1.6108   -2.9641    0.5844 C.ar      1 <0>        -0.1110
     11 C10        -2.2224   -0.0336   -1.1696 C.2       1 <0>        -0.3113
     12 C11        -3.6323   -0.0138   -1.1252 C.2       1 <0>         0.4371
     13 O1         -4.2415   -0.3961   -0.1394 O.2       1 <0>        -0.4674
     14 C12        -4.3416    0.4889   -2.3194 C.ar      1 <0>        -0.2152
     15 C13        -5.7331    0.5457   -2.3661 C.ar      1 <0>        -0.0311
     16 C14        -6.3564    1.0217   -3.4992 C.ar      1 <0>        -0.1434
     17 C15        -5.6049    1.4413   -4.5869 C.ar      1 <0>        -0.0592
     18 C16        -4.2275    1.3897   -4.5521 C.ar      1 <0>        -0.1369
     19 C17        -3.5803    0.9135   -3.4187 C.ar      1 <0>         0.1510
     20 O2         -2.2330    0.8552   -3.3628 O.3       1 <0>        -0.2591
     21 C18        -1.5804    0.4062   -2.2833 C.2       1 <0>         0.3616
     22 O3         -0.2310    0.3849   -2.3043 O.3       1 <0>        -0.4035
     23 H2          0.3758    2.3901    0.2510 H         1 <0>         0.0540
     24 H3         -1.0043    2.0283   -0.8134 H         1 <0>         0.0458
     25 H4         -1.2160    2.0154    0.9539 H         1 <0>         0.0519
     26 H5          0.5235    0.0825   -0.6445 H         1 <0>         0.0882
     27 H6          0.3117    0.0696    1.1227 H         1 <0>         0.0655
     28 H7          0.2823   -1.5383   -1.8159 H         1 <0>         0.1295
     29 H8          0.8970   -3.8951   -2.1771 H         1 <0>         0.1188
     30 H9         -0.0968   -5.6560   -0.7719 H         1 <0>         0.1191
     31 H10        -1.7048   -5.0600    0.9952 H         1 <0>         0.1207
     32 H11        -2.3132   -2.7023    1.3619 H         1 <0>         0.1222
     33 H12        -6.3192    0.2185   -1.5201 H         1 <0>         0.1445
     34 H13        -7.4346    1.0679   -3.5406 H         1 <0>         0.1387
     35 H14        -6.1037    1.8120   -5.4702 H         1 <0>         0.1431
     36 H15        -3.6525    1.7188   -5.4050 H         1 <0>         0.1441
     37 H16         0.1548    0.7123   -3.1284 H         1 <0>         0.4040
@<TRIPOS>BOND
     1    1    2 1
     2    1   23 1
     3    1   24 1
     4    1   25 1
     5    2    3 1
     6    2   26 1
     7    2   27 1
     8    3    4 1
     9    3    5 1
    10    3   11 1
    11    5   10 ar
    12    5    6 ar
    13    6    7 ar
    14    6   28 1
    15    7    8 ar
    16    7   29 1
    17    8    9 ar
    18    8   30 1
    19    9   10 ar
    20    9   31 1
    21   10   32 1
    22   11   21 2
    23   11   12 1
    24   12   13 2
    25   12   14 1
    26   14   19 ar
    27   14   15 ar
    28   15   16 ar
    29   15   33 1
    30   16   17 ar
    31   16   34 1
    32   17   18 ar
    33   17   35 1
    34   18   19 ar
    35   18   36 1
    36   19   20 1
    37   20   21 1
    38   21   22 1
    39   22   37 1
@<TRIPOS>MOLECULE
ZINC17747847
   35    35     0     0     0
SMALL
USER_CHARGES

@<TRIPOS>ATOM
      1 C1          1.7780   -3.0044   -1.9349 C.3       1 <0>        -0.1535
      2 C2          0.9101   -2.3120   -0.8821 C.3       1 <0>        -0.1241
      3 C3         -0.5447   -2.7559   -1.0483 C.3       1 <0>        -0.1294
      4 C4         -1.4126   -2.0635    0.0045 C.3       1 <0>        -0.0752
      5 H1         -1.0081   -2.2625    0.9969 H         1 <0>         0.1057
      6 C5         -1.4180   -0.5550   -0.2509 C.3       1 <0>        -0.1646
      7 C6         -2.8428   -2.6002   -0.0804 C.3       1 <0>        -0.1059
      8 C7         -3.5968   -2.1312    1.1495 C.2       1 <0>         0.5333
      9 O1         -3.2137   -2.4091    2.2658 O.2       1 <0>        -0.4405
     10 N1         -4.7104   -1.3933    0.9551 N.am      1 <0>        -0.6227
     11 C8         -5.1465   -1.0785   -0.2700 C.2       1 <0>         0.5467
     12 S1         -6.5713   -0.1367   -0.3872 S.2       1 <0>        -0.4943
     13 N2         -4.5503   -1.4456   -1.4100 N.am      1 <0>        -0.6208
     14 C9         -3.4229   -2.1880   -1.4202 C.2       1 <0>         0.5368
     15 O2         -2.8939   -2.5136   -2.4614 O.2       1 <0>        -0.4372
     16 C10        -2.7775   -4.1283   -0.0398 C.3       1 <0>        -0.0796
     17 C11        -4.1723   -4.6930   -0.1216 C.2       1 <0>        -0.1970
     18 C12        -4.4729   -5.5636   -1.0532 C.2       1 <0>        -0.1534
     19 H2          2.8144   -2.6882   -1.8165 H         1 <0>         0.0556
     20 H3          1.7110   -4.0848   -1.8076 H         1 <0>         0.0547
     21 H4          1.4269   -2.7334   -2.9306 H         1 <0>         0.0552
     22 H5          1.2611   -2.5830    0.1136 H         1 <0>         0.0631
     23 H6          0.9771   -1.2315   -1.0094 H         1 <0>         0.0640
     24 H7         -0.8957   -2.4849   -2.0440 H         1 <0>         0.0880
     25 H8         -0.6117   -3.8363   -0.9210 H         1 <0>         0.0748
     26 H9         -1.7200   -0.3618   -1.2803 H         1 <0>         0.0601
     27 H10        -2.1199   -0.0737    0.4301 H         1 <0>         0.0517
     28 H11        -0.4179   -0.1547   -0.0845 H         1 <0>         0.0824
     29 H12        -4.9400   -1.1704   -2.2546 H         1 <0>         0.4468
     30 H13        -2.1893   -4.4894   -0.8834 H         1 <0>         0.1080
     31 H14        -2.3104   -4.4473    0.8920 H         1 <0>         0.1064
     32 H15        -4.9241   -4.3801    0.5878 H         1 <0>         0.1069
     33 H16        -3.7211   -5.8765   -1.7627 H         1 <0>         0.1051
     34 H17        -5.4725   -5.9683   -1.1119 H         1 <0>         0.1058
     35 H18        -5.2094   -1.0823    1.7265 H         1 <0>         0.4471
@<TRIPOS>BOND
     1    1    2 1
     2    1   19 1
     3    1   20 1
     4    1   21 1
     5    2    3 1
     6    2   22 1
     7    2   23 1
     8    3    4 1
     9    3   24 1
    10    3   25 1
    11    4    5 1
    12    4    6 1
    13    4    7 1
    14    6   26 1
    15    6   27 1
    16    6   28 1
    17    7   14 1
    18    7    8 1
    19    7   16 1
    20    8    9 2
    21    8   10 am
    22   10   11 1
    23   10   35 1
    24   11   12 2
    25   11   13 1
    26   13   14 am
    27   13   29 1
    28   14   15 2
    29   16   17 1
    30   16   30 1
    31   16   31 1
    32   17   18 2
    33   17   32 1
    34   18   33 1
    35   18   34 1
@<TRIPOS>MOLECULE
ZINC20330769
   26    26     0     0     0
SMALL
USER_CHARGES

@<TRIPOS>ATOM
      1 C1         -0.0167    1.3776    0.0096 C.ar      1 <0>        -0.1773
      2 C2          1.1849    2.0698    0.0019 C.ar      1 <0>         0.0283
      3 C3          2.3651    1.3426   -0.0133 C.ar      1 <0>        -0.1221
      4 C4          2.3054   -0.0383   -0.0202 C.ar      1 <0>         0.1000
      5 N1          1.1443   -0.6632   -0.0129 N.ar      1 <0>        -0.5148
      6 C5          0.0021   -0.0041    0.0020 C.ar      1 <0>         0.0733
      7 C6          3.6964    2.0488   -0.0227 C.3       1 <0>        -0.0571
      8 C7          4.1610    2.2805    1.4165 C.3       1 <0>        -1.0245
      9 O1          4.2934    1.0232    2.0825 O.3       1 <0>        -0.5216
     10 P1          5.7714    3.1348    1.4051 P.3       1 <0>         2.2278
     11 O2          5.6018    4.5455    0.7983 O.2       1 <0>        -1.0644
     12 O3          6.3222    3.2618    2.9126 O.3       1 <0>        -0.8884
     13 O4          6.7773    2.3263    0.5557 O.3       1 <0>        -1.1006
     14 P2          2.9351    3.3063    2.2930 P.3       1 <0>         2.2653
     15 O5          2.7919    4.6658    1.5729 O.2       1 <0>        -1.0708
     16 O6          1.5703    2.5824    2.3027 O.3       1 <0>        -1.0817
     17 O7          3.4240    3.5502    3.8075 O.3       1 <0>        -0.8946
     18 H1         -0.9552    1.9117    0.0259 H         1 <0>         0.1177
     19 H2          1.2009    3.1496    0.0072 H         1 <0>         0.1345
     20 H3          3.2203   -0.6121   -0.0320 H         1 <0>         0.1325
     21 H4         -0.9294   -0.5505    0.0083 H         1 <0>         0.1343
     22 H5          4.4293    1.4355   -0.5468 H         1 <0>         0.0682
     23 H6          3.5953    3.0079   -0.5308 H         1 <0>         0.0890
     24 H7          4.9310    0.4247    1.6698 H         1 <0>         0.3450
     25 H8          2.8185    4.0897    4.3342 H         1 <0>         0.4006
     26 H9          7.1776    3.7072    2.9826 H         1 <0>         0.4013
@<TRIPOS>BOND
     1    1    6 ar
     2    1    2 ar
     3    1   18 1
     4    2    3 ar
     5    2   19 1
     6    3    4 ar
     7    3    7 1
     8    4    5 ar
     9    4   20 1
    10    5    6 ar
    11    6   21 1
    12    7    8 1
    13    7   22 1
    14    7   23 1
    15    8    9 1
    16    8   10 1
    17    8   14 1
    18    9   24 1
    19   10   11 2
    20   10   12 1
    21   10   13 1
    22   12   26 1
    23   14   15 2
    24   14   16 1
    25   14   17 1
    26   17   25 1
@<TRIPOS>MOLECULE
ZINC14879972
   81    84     0     0     0
SMALL
USER_CHARGES

@<TRIPOS>ATOM
      1 C1          0.3925    2.6242   -0.4066 C.3       1 <0>        -0.1810
      2 C2         -0.1398    1.2347   -0.7627 C.3       1 <0>         0.0554
      3 C3          0.1016    0.2805    0.4087 C.3       1 <0>        -0.1802
      4 C4         -1.6403    1.3214   -1.0490 C.3       1 <0>        -0.1765
      5 N1          0.5579    0.7336   -1.9543 N.4       1 <0>        -0.4899
      6 C5          1.9986    0.6504   -1.6794 C.3       1 <0>        -0.0363
      7 C6          2.7143    0.1363   -2.9019 C.2       1 <0>         0.4953
      8 O1          2.0861   -0.1342   -3.9036 O.2       1 <0>        -0.5121
      9 N2          4.0525   -0.0229   -2.8821 N.am      1 <0>        -0.6291
     10 C7          4.7040   -0.6133   -3.9733 C.ar      1 <0>         0.0786
     11 C8          4.0122   -1.4744   -4.8104 C.ar      1 <0>        -0.0910
     12 C9          4.6499   -2.0582   -5.8991 C.ar      1 <0>         0.1700
     13 C10         5.9840   -1.7862   -6.1519 C.ar      1 <0>        -0.0209
     14 C11         6.6913   -0.9293   -5.3058 C.ar      1 <0>        -0.1492
     15 C12         6.0455   -0.3302   -4.2198 C.ar      1 <0>         0.1424
     16 O2          6.7244    0.5194   -3.4060 O.3       1 <0>        -0.4720
     17 C13         8.1248   -0.6750   -5.5544 C.2       1 <0>         0.4345
     18 O3          8.7004    0.2353   -4.9857 O.2       1 <0>        -0.4246
     19 C14         8.8236   -1.5146   -6.4718 C.2       1 <0>        -0.2678
     20 C15        10.0672   -1.1796   -6.8273 C.2       1 <0>         0.1991
     21 C16        10.9192   -1.9827   -7.7728 C.3       1 <0>         0.1143
     22 C17        10.3220   -3.3824   -7.9219 C.3       1 <0>        -0.0534
     23 H1         10.4193   -3.8954   -6.9651 H         1 <0>         0.0843
     24 C18         8.8354   -3.2629   -8.2464 C.3       1 <0>        -0.1161
     25 C19         8.1195   -2.7353   -7.0003 C.3       1 <0>        -0.0192
     26 H2          8.1266   -3.5092   -6.2327 H         1 <0>         0.0819
     27 C20         6.6686   -2.4048   -7.3425 C.3       1 <0>        -0.0796
     28 C21        11.0547   -4.1963   -8.9703 C.3       1 <0>         0.0901
     29 H3         10.4956   -5.1123   -9.1612 H         1 <0>         0.0533
     30 C22        11.2161   -3.4476  -10.2592 C.2       1 <0>         0.3549
     31 C23        11.1346   -2.0791  -10.3263 C.2       1 <0>        -0.4975
     32 C24        10.8672   -1.3029   -9.1281 C.2       1 <0>         0.3864
     33 O4         10.5857   -0.1256   -9.2184 O.2       1 <0>        -0.5222
     34 C25        11.3328   -1.3962  -11.6146 C.2       1 <0>         0.5864
     35 O5         11.4644   -2.0467  -12.6339 O.2       1 <0>        -0.5632
     36 N3         11.3686   -0.0498  -11.6651 N.am      1 <0>        -0.8755
     37 O6         11.4486   -4.1386  -11.3850 O.3       1 <0>        -0.5965
     38 N4         12.3848   -4.5488   -8.4562 N.3       1 <0>        -0.5111
     39 C26        12.2806   -5.4429   -7.2953 C.3       1 <0>         0.0263
     40 C27        13.2145   -5.1484   -9.5097 C.3       1 <0>         0.0298
     41 O7         12.2654   -2.0504   -7.2982 O.3       1 <0>        -0.5005
     42 O8         10.5912   -0.0518   -6.3071 O.3       1 <0>        -0.4534
     43 N5          3.9420   -2.9231   -6.7413 N.pl3     1 <0>        -0.6818
     44 C28         3.2330   -2.3919   -7.9081 C.3       1 <0>         0.1144
     45 C29         3.9101   -4.3597   -6.4563 C.3       1 <0>         0.1143
     46 H4          1.4615    2.5625   -0.2026 H         1 <0>         0.0824
     47 H5          0.2205    3.3040   -1.2411 H         1 <0>         0.0849
     48 H6         -0.1252    2.9960    0.4776 H         1 <0>         0.1085
     49 H7         -0.4161    0.6523    1.2929 H         1 <0>         0.1084
     50 H8         -0.2777   -0.7094    0.1550 H         1 <0>         0.0843
     51 H9          1.1706    0.2187    0.6126 H         1 <0>         0.0820
     52 H10        -1.8123    2.0012   -1.8835 H         1 <0>         0.0842
     53 H11        -2.0196    0.3314   -1.3027 H         1 <0>         0.0839
     54 H12        -2.1580    1.6932   -0.1648 H         1 <0>         0.1082
     55 H13         0.2068   -0.1828   -2.1892 H         1 <0>         0.4337
     56 H14         2.3778    1.6403   -1.4258 H         1 <0>         0.1652
     57 H15         2.1705   -0.0294   -0.8450 H         1 <0>         0.1653
     58 H16         4.5646    0.2711   -2.1126 H         1 <0>         0.4199
     59 H17         2.9726   -1.6932   -4.6158 H         1 <0>         0.1494
     60 H18         7.1585    0.0856   -2.6587 H         1 <0>         0.3898
     61 H19         8.6937   -2.5681   -9.0742 H         1 <0>         0.0811
     62 H20         8.4369   -4.2416   -8.5138 H         1 <0>         0.0835
     63 H21         6.1466   -3.3191   -7.6249 H         1 <0>         0.0931
     64 H22         6.6447   -1.7045   -8.1774 H         1 <0>         0.0894
     65 H23        11.3417    0.4672  -10.8448 H         1 <0>         0.3988
     66 H24        11.4213    0.4022  -12.5218 H         1 <0>         0.3765
     67 H25        11.8422   -6.3914   -7.6055 H         1 <0>         0.0170
     68 H26        13.2738   -5.6194   -6.8823 H         1 <0>         0.0652
     69 H27        11.6485   -4.9812   -6.5367 H         1 <0>         0.0647
     70 H28        13.4091   -4.4073  -10.2849 H         1 <0>         0.0820
     71 H29        14.1594   -5.4832   -9.0817 H         1 <0>         0.0545
     72 H30        12.6907   -5.9998   -9.9443 H         1 <0>         0.0263
     73 H31        12.7187   -1.1964   -7.2779 H         1 <0>         0.3706
     74 H32        11.4349   -0.1831   -5.8532 H         1 <0>         0.3926
     75 H33         3.9002   -2.3925   -8.7700 H         1 <0>         0.0419
     76 H34         2.3645   -3.0154   -8.1204 H         1 <0>         0.0600
     77 H35         2.9067   -1.3725   -7.7019 H         1 <0>         0.0531
     78 H36         3.4658   -4.5256   -5.4749 H         1 <0>         0.0371
     79 H37         3.3149   -4.8676   -7.2151 H         1 <0>         0.0700
     80 H38         4.9259   -4.7549   -6.4666 H         1 <0>         0.0465
     81 H39         0.3987    1.3629   -2.7268 H         1 <0>         0.4348
@<TRIPOS>BOND
     1    1    2 1
     2    1   46 1
     3    1   47 1
     4    1   48 1
     5    2    3 1
     6    2    4 1
     7    2    5 1
     8    3   49 1
     9    3   50 1
    10    3   51 1
    11    4   52 1
    12    4   53 1
    13    4   54 1
    14    5    6 1
    15    5   55 1
    16    5   81 1
    17    6    7 1
    18    6   56 1
    19    6   57 1
    20    7    8 2
    21    7    9 am
    22    9   10 1
    23    9   58 1
    24   10   15 ar
    25   10   11 ar
    26   11   12 ar
    27   11   59 1
    28   12   13 ar
    29   12   43 1
    30   13   27 1
    31   13   14 ar
    32   14   15 ar
    33   14   17 1
    34   15   16 1
    35   16   60 1
    36   17   18 2
    37   17   19 1
    38   19   25 1
    39   19   20 2
    40   20   21 1
    41   20   42 1
    42   21   32 1
    43   21   22 1
    44   21   41 1
    45   22   23 1
    46   22   24 1
    47   22   28 1
    48   24   25 1
    49   24   61 1
    50   24   62 1
    51   25   26 1
    52   25   27 1
    53   27   63 1
    54   27   64 1
    55   28   29 1
    56   28   30 1
    57   28   38 1
    58   30   31 2
    59   30   37 1
    60   31   32 1
    61   31   34 1
    62   32   33 2
    63   34   35 2
    64   34   36 am
    65   36   65 1
    66   36   66 1
    67   38   39 1
    68   38   40 1
    69   39   67 1
    70   39   68 1
    71   39   69 1
    72   40   70 1
    73   40   71 1
    74   40   72 1
    75   41   73 1
    76   42   74 1
    77   43   44 1
    78   43   45 1
    79   44   75 1
    80   44   76 1
    81   44   77 1
    82   45   78 1
    83   45   79 1
    84   45   80 1
@<TRIPOS>MOLECULE
ZINC00057501
   30    31     0     0     0
SMALL
USER_CHARGES

@<TRIPOS>ATOM
      1 C1         -0.0184    1.5028    0.0103 C.3       1 <0>        -0.1100
      2 C2          0.0021   -0.0041    0.0020 C.ar      1 <0>         0.2100
      3 C3          0.0060   -0.6990   -1.1975 C.ar      1 <0>        -0.2597
      4 C4          0.0255   -2.0842   -1.1605 C.ar      1 <0>         0.1920
      5 N1          0.0397   -2.6984    0.0111 N.ar      1 <0>        -0.5464
      6 C5          0.0354   -2.0045    1.1396 C.ar      1 <0>         0.5616
      7 N2          0.0220   -0.6794    1.1390 N.ar      1 <0>        -0.5415
      8 N3          0.0502   -2.6794    2.3478 N.pl3     1 <0>        -1.0177
      9 S1          0.4435   -4.2874    2.3932 S.o2      1 <0>         2.6971
     10 O1          0.3961   -4.6787    3.7584 O.2       1 <0>        -0.9501
     11 O2         -0.3362   -4.9247    1.3905 O.2       1 <0>        -0.9204
     12 C6          2.1256   -4.4268    1.8875 C.ar      1 <0>        -0.7324
     13 C7          2.4321   -4.5940    0.5494 C.ar      1 <0>         0.0413
     14 C8          3.7494   -4.7036    0.1496 C.ar      1 <0>        -0.2232
     15 C9          4.7671   -4.6456    1.0933 C.ar      1 <0>         0.2714
     16 C10         4.4557   -4.4776    2.4366 C.ar      1 <0>        -0.2204
     17 C11         3.1365   -4.3630    2.8289 C.ar      1 <0>         0.0284
     18 N4          6.1005   -4.7566    0.6925 N.pl3     1 <0>        -0.8654
     19 H1          1.0042    1.8801    0.0026 H         1 <0>         0.0886
     20 H2         -0.5455    1.8639   -0.8728 H         1 <0>         0.0854
     21 H3         -0.5286    1.8543    0.9071 H         1 <0>         0.0846
     22 H4         -0.0062   -0.1724   -2.1403 H         1 <0>         0.1526
     23 H5          0.0287   -2.6554   -2.0771 H         1 <0>         0.1790
     24 H6          1.6403   -4.6394   -0.1837 H         1 <0>         0.1484
     25 H7          3.9881   -4.8346   -0.8955 H         1 <0>         0.1302
     26 H8          5.2446   -4.4325    3.1729 H         1 <0>         0.1310
     27 H9          2.8939   -4.2279    3.8726 H         1 <0>         0.1395
     28 H10         6.3167   -4.8743   -0.2458 H         1 <0>         0.4036
     29 H11         6.8103   -4.7160    1.3523 H         1 <0>         0.4036
     30 H12        -0.1699   -2.2106    3.1680 H         1 <0>         0.4388
@<TRIPOS>BOND
     1    1    2 1
     2    1   19 1
     3    1   20 1
     4    1   21 1
     5    2    7 ar
     6    2    3 ar
     7    3    4 ar
     8    3   22 1
     9    4    5 ar
    10    4   23 1
    11    5    6 ar
    12    6    7 ar
    13    6    8 1
    14    8    9 1
    15    8   30 1
    16    9   10 2
    17    9   11 2
    18    9   12 1
    19   12   17 ar
    20   12   13 ar
    21   13   14 ar
    22   13   24 1
    23   14   15 ar
    24   14   25 1
    25   15   16 ar
    26   15   18 1
    27   16   17 ar
    28   16   26 1
    29   17   27 1
    30   18   28 1
    31   18   29 1
@<TRIPOS>MOLECULE
ZINC00057494
   32    33     0     0     0
SMALL
USER_CHARGES

@<TRIPOS>ATOM
      1 C1         -0.0184    1.5028    0.0103 C.3       1 <0>        -0.1014
      2 C2          0.0021   -0.0041    0.0020 C.ar      1 <0>         0.2105
      3 C3          0.0060   -0.6989   -1.1973 C.ar      1 <0>        -0.3405
      4 C4          0.0255   -2.0843   -1.1603 C.ar      1 <0>         0.1990
      5 N1          0.0397   -2.6984    0.0111 N.ar      1 <0>        -0.5552
      6 C5          0.0354   -2.0044    1.1397 C.ar      1 <0>         0.6016
      7 N2          0.0220   -0.6795    1.1391 N.ar      1 <0>        -0.6230
      8 N3          0.0502   -2.6793    2.3480 N.2       1 <0>        -1.0525
      9 S1          0.0452   -1.8312    3.7703 S.o2      1 <0>         2.6463
     10 O1          1.2815   -1.1332    3.8313 O.2       1 <0>        -1.0224
     11 O2         -1.2090   -1.1671    3.8428 O.2       1 <0>        -1.0225
     12 C6          0.0673   -3.0099    5.0798 C.ar      1 <0>        -0.6758
     13 C7         -1.1224   -3.4920    5.5942 C.ar      1 <0>         0.0239
     14 C8         -1.1087   -4.4159    6.6206 C.ar      1 <0>        -0.2217
     15 C9          0.1019   -4.8610    7.1362 C.ar      1 <0>         0.2454
     16 C10         1.2951   -4.3747    6.6171 C.ar      1 <0>        -0.2217
     17 C11         1.2743   -3.4551    5.5870 C.ar      1 <0>         0.0238
     18 N4          0.1194   -5.7950    8.1745 N.pl3     1 <0>        -0.8769
     19 C12         0.0299   -2.8813   -2.4393 C.3       1 <0>        -0.0951
     20 H1          1.0042    1.8801    0.0026 H         1 <0>         0.0737
     21 H2         -0.5455    1.8639   -0.8728 H         1 <0>         0.0688
     22 H3         -0.5286    1.8543    0.9071 H         1 <0>         0.0731
     23 H4         -0.0062   -0.1722   -2.1401 H         1 <0>         0.1203
     24 H5         -2.0633   -3.1452    5.1931 H         1 <0>         0.1351
     25 H6         -2.0382   -4.7917    7.0221 H         1 <0>         0.1226
     26 H7          2.2381   -4.7184    7.0160 H         1 <0>         0.1226
     27 H8          2.2016   -3.0800    5.1800 H         1 <0>         0.1351
     28 H9         -0.7145   -6.1336    8.5364 H         1 <0>         0.3972
     29 H10         0.9654   -6.1051    8.5338 H         1 <0>         0.3972
     30 H11         1.0585   -3.0592   -2.7530 H         1 <0>         0.0722
     31 H12        -0.4698   -3.8359   -2.2743 H         1 <0>         0.0725
     32 H13        -0.4957   -2.3254   -3.2157 H         1 <0>         0.0678
@<TRIPOS>BOND
     1    1    2 1
     2    1   20 1
     3    1   21 1
     4    1   22 1
     5    2    7 ar
     6    2    3 ar
     7    3    4 ar
     8    3   23 1
     9    4    5 ar
    10    4   19 1
    11    5    6 ar
    12    6    7 ar
    13    6    8 1
    14    8    9 1
    15    9   10 2
    16    9   11 2
    17    9   12 1
    18   12   17 ar
    19   12   13 ar
    20   13   14 ar
    21   13   24 1
    22   14   15 ar
    23   14   25 1
    24   15   16 ar
    25   15   18 1
    26   16   17 ar
    27   16   26 1
    28   17   27 1
    29   18   28 1
    30   18   29 1
    31   19   30 1
    32   19   31 1
    33   19   32 1
@<TRIPOS>MOLECULE
ZINC01571045
   36    38     0     0     0
SMALL
USER_CHARGES

@<TRIPOS>ATOM
      1 C1         -0.0158    1.3119    0.0093 C.ar      1 <0>         0.3571
      2 N1          1.0888    2.0360    0.0026 N.ar      1 <0>        -0.5948
      3 C2          2.2875    1.4625   -0.0119 C.ar      1 <0>         0.5052
      4 C3          2.3582    0.0588   -0.0202 C.ar      1 <0>        -0.1091
      5 C4          1.1547   -0.6659   -0.0126 C.ar      1 <0>         0.3131
      6 N2          0.0021   -0.0041    0.0020 N.ar      1 <0>        -0.5420
      7 N3          1.5110   -1.9908   -0.0227 N.pl3     1 <0>        -0.4683
      8 C5          2.8729   -2.0476   -0.0358 C.2       1 <0>         0.2678
      9 N4          3.3680   -0.8441   -0.0343 N.2       1 <0>        -0.4683
     10 C6          0.5956   -3.1347   -0.0195 C.3       1 <0>         0.3161
     11 H1         -0.2828   -2.9138    0.5869 H         1 <0>         0.1260
     12 C7          0.1740   -3.4901   -1.4675 C.3       1 <0>         0.0349
     13 H2          1.0049   -3.3620   -2.1613 H         1 <0>         0.0880
     14 C8         -0.1950   -4.9902   -1.3073 C.3       1 <0>         0.0483
     15 H3         -0.0494   -5.5277   -2.2442 H         1 <0>         0.0943
     16 C9          0.8144   -5.4637   -0.2395 C.3       1 <0>         0.0892
     17 H4          1.6612   -5.9520   -0.7219 H         1 <0>         0.1129
     18 O1          1.2628   -4.3057    0.4773 O.3       1 <0>        -0.3456
     19 C10         0.1329   -6.4383    0.7231 C.3       1 <0>         0.1383
     20 O2          1.1002   -6.9608    1.6360 O.3       1 <0>        -0.7572
     21 P1          0.7326   -8.0191    2.7923 P.3       1 <0>         2.2118
     22 O3          0.0407   -9.2492    2.1635 O.2       1 <0>        -1.1091
     23 O4          2.0795   -8.4854    3.5409 O.3       1 <0>        -0.8973
     24 O5         -0.2208   -7.3573    3.8121 O.3       1 <0>        -1.1055
     25 O6         -1.5386   -5.1365   -0.8431 O.3       1 <0>        -0.5323
     26 O7         -0.9585   -2.7212   -1.8777 O.3       1 <0>        -0.5285
     27 N5          3.4393    2.2295   -0.0193 N.pl3     1 <0>        -0.8212
     28 H5         -0.9693    1.8187    0.0257 H         1 <0>         0.2032
     29 H6          3.4551   -2.9572   -0.0459 H         1 <0>         0.2242
     30 H7         -0.6457   -5.9155    1.2786 H         1 <0>         0.0691
     31 H8         -0.3118   -7.2567    0.1570 H         1 <0>         0.0728
     32 H9         -2.2039   -4.7735   -1.4436 H         1 <0>         0.3837
     33 H10        -1.2574   -2.9105   -2.7776 H         1 <0>         0.3826
     34 H11         3.3774    3.1975   -0.0138 H         1 <0>         0.4082
     35 H12         4.3085    1.7992   -0.0299 H         1 <0>         0.4178
     36 H13         1.9334   -9.1247    4.2515 H         1 <0>         0.4146
@<TRIPOS>BOND
     1    1    6 ar
     2    1    2 ar
     3    1   28 1
     4    2    3 ar
     5    3    4 ar
     6    3   27 1
     7    4    9 1
     8    4    5 ar
     9    5    6 ar
    10    5    7 1
    11    7    8 1
    12    7   10 1
    13    8    9 2
    14    8   29 1
    15   10   11 1
    16   10   18 1
    17   10   12 1
    18   12   13 1
    19   12   14 1
    20   12   26 1
    21   14   15 1
    22   14   16 1
    23   14   25 1
    24   16   17 1
    25   16   18 1
    26   16   19 1
    27   19   20 1
    28   19   30 1
    29   19   31 1
    30   20   21 1
    31   21   22 2
    32   21   23 1
    33   21   24 1
    34   23   36 1
    35   25   32 1
    36   26   33 1
    37   27   34 1
    38   27   35 1
@<TRIPOS>MOLECULE
ZINC14294279
   71    75     0     0     0
SMALL
USER_CHARGES
(5-methyl-2-oxo-1,3-dioxol-4-yl)methyl 5-(1-hydroxy-1-methyl-ethyl)-2-propyl-3-[[4-[2-(1H-tetrazol-5-yl)phenyl]phenyl]methyl]imidazole-4-carboxylate
@<TRIPOS>ATOM
      1 C1          3.2295    9.4269   -2.1493 C.3       1 <0>        -0.1588
      2 C2          3.6521    9.0275   -0.7341 C.3       1 <0>        -0.1228
      3 C3          5.1793    9.0208   -0.6407 C.3       1 <0>        -0.0879
      4 C4          5.5975    8.5114    0.7145 C.cat     1 <0>         0.3447
      5 C5          6.0933    8.4714    2.8164 C.2       1 <0>         0.1299
      6 C6          6.2532    7.1982    2.3434 C.2       1 <0>         0.0266
      7 N1          5.9293    7.2401    1.0006 N.pl3     1 <0>        -0.3668
      8 C7          5.9498    6.1136    0.0642 C.3       1 <0>         0.1307
      9 C8          7.2583    6.1054   -0.6833 C.ar      1 <0>        -0.1431
     10 C9          8.3736    5.5178   -0.1136 C.ar      1 <0>        -0.1181
     11 C10         9.5743    5.5069   -0.7936 C.ar      1 <0>        -0.1062
     12 C11         9.6621    6.0897   -2.0571 C.ar      1 <0>        -0.0056
     13 C12         8.5362    6.6855   -2.6237 C.ar      1 <0>         0.0164
     14 C13         7.3393    6.6852   -1.9367 C.ar      1 <0>        -0.1106
     15 C14        10.9489    6.0812   -2.7925 C.ar      1 <0>        -0.0558
     16 C15        12.1167    6.5065   -2.1652 C.ar      1 <0>        -0.1069
     17 C16        13.3129    6.4975   -2.8538 C.ar      1 <0>        -0.1308
     18 C17        13.3622    6.0616   -4.1674 C.ar      1 <0>        -0.1118
     19 C18        12.2141    5.6419   -4.8072 C.ar      1 <0>        -0.0987
     20 C19        10.9972    5.6443   -4.1272 C.ar      1 <0>         0.0550
     21 C20         9.7652    5.1894   -4.8058 C.2       1 <0>         0.1194
     22 N2          8.3055    4.4341   -6.2605 N.2       1 <0>        -0.1962
     23 N3          7.7136    4.6973   -5.1462 N.2       1 <0>        -0.1550
     24 N4          8.5566    5.1406   -4.2849 N.2       1 <0>        -0.3971
     25 C21         6.6820    6.0235    3.1082 C.2       1 <0>         0.5418
     26 O1          6.8695    6.1133    4.3063 O.2       1 <0>        -0.4292
     27 O2          6.8687    4.8431    2.4830 O.3       1 <0>        -0.3493
     28 C22         7.2936    3.7227    3.3031 C.3       1 <0>         0.1606
     29 C23         7.4494    2.4981    2.4387 C.2       1 <0>        -0.0752
     30 C24         8.5546    2.1246    1.8139 C.2       1 <0>         0.0443
     31 O3          8.2937    0.9761    1.1429 O.3       1 <0>        -0.2336
     32 C25         7.0103    0.6498    1.3654 C.2       1 <0>         0.5788
     33 O4          6.4307   -0.3221    0.9210 O.2       1 <0>        -0.4082
     34 O5          6.4834    1.5855    2.1715 O.3       1 <0>        -0.2359
     35 C26         9.8750    2.8503    1.8437 C.3       1 <0>        -0.0926
     36 C27         6.3283    8.9286    4.2330 C.3       1 <0>         0.1987
     37 C28         7.8210    8.8391    4.5568 C.3       1 <0>        -0.1832
     38 C29         5.8593   10.3769    4.3859 C.3       1 <0>        -0.2004
     39 O6          5.5951    8.0931    5.1310 O.3       1 <0>        -0.5327
     40 H1          2.1415    9.4316   -2.2158 H         1 <0>         0.0707
     41 H2          3.6116   10.4224   -2.3753 H         1 <0>         0.0648
     42 H3          3.6341    8.7112   -2.8649 H         1 <0>         0.0689
     43 H4          3.2700    8.0320   -0.5081 H         1 <0>         0.0757
     44 H5          3.2475    9.7431   -0.0184 H         1 <0>         0.0749
     45 H6          5.5562   10.0340   -0.7802 H         1 <0>         0.1270
     46 H7          5.5878    8.3714   -1.4149 H         1 <0>         0.1306
     47 H8          5.1274    6.2147   -0.6440 H         1 <0>         0.1281
     48 H9          5.8410    5.1801    0.6164 H         1 <0>         0.1375
     49 H10         8.3043    5.0663    0.8650 H         1 <0>         0.1178
     50 H11        10.4443    5.0475   -0.3480 H         1 <0>         0.1211
     51 H12         8.5995    7.1427   -3.6001 H         1 <0>         0.1247
     52 H13         6.4653    7.1422   -2.3766 H         1 <0>         0.1173
     53 H14        12.0867    6.8432   -1.1395 H         1 <0>         0.1199
     54 H15        14.2168    6.8278   -2.3637 H         1 <0>         0.1212
     55 H16        14.3042    6.0543   -4.6956 H         1 <0>         0.1237
     56 H17        12.2589    5.3075   -5.8331 H         1 <0>         0.1330
     57 H18         8.2477    3.9586    3.7743 H         1 <0>         0.1216
     58 H19         6.5457    3.5315    4.0726 H         1 <0>         0.1114
     59 H20        10.4748    2.4795    2.6749 H         1 <0>         0.1038
     60 H21        10.4057    2.6777    0.9073 H         1 <0>         0.1022
     61 H22         9.6996    3.9186    1.9703 H         1 <0>         0.0976
     62 H23         8.3802    9.4763    3.8718 H         1 <0>         0.0707
     63 H24         7.9909    9.1698    5.5814 H         1 <0>         0.0858
     64 H25         8.1551    7.8073    4.4479 H         1 <0>         0.0839
     65 H26         4.7802   10.4267    4.2399 H         1 <0>         0.0767
     66 H27         6.1078   10.7358    5.3847 H         1 <0>         0.0935
     67 H28         6.3557   11.0000    3.6420 H         1 <0>         0.0714
     68 H29         5.6997    8.3301    6.0627 H         1 <0>         0.3988
     69 N5          9.6438    4.7511   -6.0664 N.2       1 <0>        -0.4027
     70 N6          5.6922    9.2369    1.8007 N.pl3     1 <0>        -0.4842
     71 H30         5.4888   10.2415    1.8610 H         1 <0>         0.4781
@<TRIPOS>BOND
     1    1    2 1
     2    1   40 1
     3    1   41 1
     4    1   42 1
     5    2    3 1
     6    2   43 1
     7    2   44 1
     8    3    4 1
     9    3   45 1
    10    3   46 1
    11    4    7 1
    12    4   70 2
    13    5    6 2
    14    5   36 1
    15    5   70 1
    16    6    7 1
    17    6   25 1
    18    7    8 1
    19    8    9 1
    20    8   47 1
    21    8   48 1
    22    9   14 ar
    23    9   10 ar
    24   10   11 ar
    25   10   49 1
    26   11   12 ar
    27   11   50 1
    28   12   13 ar
    29   12   15 1
    30   13   14 ar
    31   13   51 1
    32   14   52 1
    33   15   20 ar
    34   15   16 ar
    35   16   17 ar
    36   16   53 1
    37   17   18 ar
    38   17   54 1
    39   18   19 ar
    40   18   55 1
    41   19   20 ar
    42   19   56 1
    43   20   21 1
    44   21   24 2
    45   21   69 1
    46   22   23 2
    47   22   69 1
    48   23   24 1
    49   25   26 2
    50   25   27 1
    51   27   28 1
    52   28   29 1
    53   28   57 1
    54   28   58 1
    55   29   34 1
    56   29   30 2
    57   30   31 1
    58   30   35 1
    59   31   32 1
    60   32   33 2
    61   32   34 1
    62   35   59 1
    63   35   60 1
    64   35   61 1
    65   36   37 1
    66   36   38 1
    67   36   39 1
    68   37   62 1
    69   37   63 1
    70   37   64 1
    71   38   65 1
    72   38   66 1
    73   38   67 1
    74   39   68 1
    75   70   71 1
@<TRIPOS>MOLECULE
ZINC06627681
   40    41     0     0     0
SMALL
USER_CHARGES

@<TRIPOS>ATOM
      1 C1         -0.0173    1.4248    0.0099 C.3       1 <0>         0.0236
      2 O1          0.0021   -0.0041    0.0020 O.3       1 <0>        -0.2966
      3 C2          0.6062   -0.6075   -1.0565 C.ar      1 <0>         0.1590
      4 C3          1.1731    0.1601   -2.0626 C.ar      1 <0>        -0.2276
      5 C4          1.7874   -0.4523   -3.1388 C.ar      1 <0>        -0.0278
      6 C5          1.8393   -1.8314   -3.2169 C.ar      1 <0>        -0.2351
      7 C6          1.2749   -2.6062   -2.2150 C.ar      1 <0>         0.1601
      8 C7          0.6613   -1.9944   -1.1284 C.ar      1 <0>         0.0371
      9 O2          0.1111   -2.7512   -0.1402 O.3       1 <0>        -0.3127
     10 C8         -1.2598   -3.1236   -0.2953 C.3       1 <0>         0.0346
     11 O3          1.3261   -3.9630   -2.2930 O.3       1 <0>        -0.2955
     12 C9          1.9770   -4.5231   -3.4352 C.3       1 <0>         0.0221
     13 C10         2.4017    0.3858   -4.2302 C.3       1 <0>        -0.0295
     14 C11         3.8422    0.6725   -3.8928 C.ar      1 <0>        -0.2227
     15 C12         4.1975    1.8410   -3.2477 C.ar      1 <0>         0.2105
     16 N1          5.4726    2.0633   -2.9647 N.ar      1 <0>        -0.5697
     17 C13         6.4065    1.1822   -3.2920 C.ar      1 <0>         0.6625
     18 N2          6.1075    0.0504   -3.9114 N.ar      1 <0>        -0.5720
     19 C14         4.8475   -0.2398   -4.2201 C.ar      1 <0>         0.5372
     20 N3          4.5370   -1.4272   -4.8628 N.pl3     1 <0>        -0.7792
     21 N4          7.7275    1.4516   -2.9793 N.pl3     1 <0>        -0.7906
     22 H1          1.0053    1.8021    0.0021 H         1 <0>         0.0555
     23 H2         -0.5445    1.7859   -0.8732 H         1 <0>         0.0607
     24 H3         -0.5275    1.7763    0.9067 H         1 <0>         0.1087
     25 H4          1.1343    1.2379   -2.0054 H         1 <0>         0.1378
     26 H5          2.3199   -2.3061   -4.0596 H         1 <0>         0.1268
     27 H6         -1.3771   -3.7054   -1.2095 H         1 <0>         0.0473
     28 H7         -1.5724   -3.7233    0.5596 H         1 <0>         0.0987
     29 H8         -1.8756   -2.2262   -0.3542 H         1 <0>         0.0474
     30 H9          1.4660   -4.1967   -4.3410 H         1 <0>         0.0599
     31 H10         3.0141   -4.1888   -3.4626 H         1 <0>         0.0544
     32 H11         1.9474   -5.6109   -3.3732 H         1 <0>         0.1103
     33 H12         2.3506   -0.1544   -5.1756 H         1 <0>         0.0994
     34 H13         1.8554    1.3249   -4.3183 H         1 <0>         0.1128
     35 H14         3.4440    2.5659   -2.9772 H         1 <0>         0.2147
     36 H15         3.6157   -1.6298   -5.0887 H         1 <0>         0.4275
     37 H16         7.9600    2.2771   -2.5260 H         1 <0>         0.4311
     38 H17         8.4208    0.8149   -3.2134 H         1 <0>         0.4453
     39 H18         5.2409   -2.0558   -5.0868 H         1 <0>         0.4288
     40 H19         5.7260    2.8827   -2.5117 H         1 <0>         0.4452
@<TRIPOS>BOND
     1    1    2 1
     2    1   22 1
     3    1   23 1
     4    1   24 1
     5    2    3 1
     6    3    8 ar
     7    3    4 ar
     8    4    5 ar
     9    4   25 1
    10    5    6 ar
    11    5   13 1
    12    6    7 ar
    13    6   26 1
    14    7    8 ar
    15    7   11 1
    16    8    9 1
    17    9   10 1
    18   10   27 1
    19   10   28 1
    20   10   29 1
    21   11   12 1
    22   12   30 1
    23   12   31 1
    24   12   32 1
    25   13   14 1
    26   13   33 1
    27   13   34 1
    28   14   19 ar
    29   14   15 ar
    30   15   16 ar
    31   15   35 1
    32   16   17 ar
    33   16   40 1
    34   17   18 ar
    35   17   21 1
    36   18   19 ar
    37   19   20 1
    38   20   36 1
    39   20   39 1
    40   21   37 1
    41   21   38 1
@<TRIPOS>MOLECULE
ZINC00001732
   37    40     0     0     0
SMALL
USER_CHARGES

@<TRIPOS>ATOM
      1 C1         -0.1766    1.6649    0.3320 C.3       1 <0>        -0.0966
      2 C2         -0.0921    0.1665    0.1958 C.2       1 <0>         0.2698
      3 N1         -0.1465   -0.5041   -0.9248 N.2       1 <0>        -0.4658
      4 C3         -0.0160   -1.8160   -0.6658 C.2       1 <0>         0.0643
      5 C4          0.1227   -1.9631    0.6612 C.2       1 <0>        -0.1118
      6 N2          0.0594   -0.7162    1.2148 N.pl3     1 <0>        -0.4221
      7 C5          0.0994   -0.4315    2.5822 C.ar      1 <0>         0.2053
      8 C6         -0.6851    0.6139    3.0589 C.ar      1 <0>        -0.1293
      9 C7         -0.7071    0.9145    4.4047 C.ar      1 <0>        -0.0167
     10 C8          0.0541    0.1709    5.2925 C.ar      1 <0>        -0.0446
     11 C9          0.8454   -0.8580    4.8338 C.ar      1 <0>        -0.0207
     12 C10         0.8924   -1.1660    3.4653 C.ar      1 <0>        -0.1457
     13 C11         1.8123   -2.2224    3.0297 C.2       1 <0>         0.4592
     14 N3          1.6105   -3.1335    2.1423 N.pl3     1 <0>        -0.5182
     15 C12         0.3278   -3.2461    1.4250 C.3       1 <0>         0.1418
     16 C13         3.1363   -2.2436    3.6918 C.ar      1 <0>        -0.2217
     17 C14         3.4959   -3.3184    4.5055 C.ar      1 <0>        -0.0487
     18 C15         4.7306   -3.3325    5.1197 C.ar      1 <0>        -0.1180
     19 C16         5.6138   -2.2833    4.9317 C.ar      1 <0>        -0.0314
     20 C17         5.2659   -1.2141    4.1277 C.ar      1 <0>        -0.1446
     21 C18         4.0336   -1.1900    3.5002 C.ar      1 <0>         0.1633
     22 F1          3.6960   -0.1478    2.7096 F         1 <0>        -0.1197
     23 Cl1         0.0101    0.5384    6.9886 Cl        1 <0>        -0.0139
     24 H1          0.8290    2.0829    0.3782 H         1 <0>         0.0982
     25 H2         -0.7030    2.0789   -0.5281 H         1 <0>         0.1127
     26 H3         -0.7171    1.9169    1.2444 H         1 <0>         0.0902
     27 H4         -0.0220   -2.6115   -1.3962 H         1 <0>         0.1935
     28 H5         -1.2809    1.1943    2.3701 H         1 <0>         0.1720
     29 H6         -1.3169    1.7292    4.7664 H         1 <0>         0.1701
     30 H7          1.4348   -1.4328    5.5327 H         1 <0>         0.1623
     31 H8         -0.4896   -3.3902    2.1315 H         1 <0>         0.1363
     32 H9          0.3704   -4.0861    0.7316 H         1 <0>         0.1622
     33 H10         2.8083   -4.1379    4.6543 H         1 <0>         0.1492
     34 H11         5.0091   -4.1644    5.7495 H         1 <0>         0.1554
     35 H12         6.5791   -2.3001    5.4157 H         1 <0>         0.1565
     36 H13         5.9593   -0.3985    3.9853 H         1 <0>         0.1599
     37 H14         2.3209   -3.7633    1.9432 H         1 <0>         0.4473
@<TRIPOS>BOND
     1    1    2 1
     2    1   24 1
     3    1   25 1
     4    1   26 1
     5    2    6 1
     6    2    3 2
     7    3    4 1
     8    4    5 2
     9    4   27 1
    10    5   15 1
    11    5    6 1
    12    6    7 1
    13    7   12 ar
    14    7    8 ar
    15    8    9 ar
    16    8   28 1
    17    9   10 ar
    18    9   29 1
    19   10   11 ar
    20   10   23 1
    21   11   12 ar
    22   11   30 1
    23   12   13 1
    24   13   14 2
    25   13   16 1
    26   14   15 1
    27   14   37 1
    28   15   31 1
    29   15   32 1
    30   16   21 ar
    31   16   17 ar
    32   17   18 ar
    33   17   33 1
    34   18   19 ar
    35   18   34 1
    36   19   20 ar
    37   19   35 1
    38   20   21 ar
    39   20   36 1
    40   21   22 1
@<TRIPOS>MOLECULE
ZINC14438802
   19    19     0     0     0
SMALL
NO_CHARGES

@<TRIPOS>ATOM
      1 C1         -0.0187    1.5258    0.0104 C.3       1 <0>         0.0472
      2 C2          0.0021   -0.0041    0.0020 C.3       1 <0>         0.1137
      3 H1          0.6044   -0.3639    0.8362 H         1 <0>         0.1211
      4 C3         -1.4266   -0.5342    0.1385 C.3       1 <0>         0.0002
      5 C4         -1.4233   -2.0473    0.2133 C.2       1 <0>         0.3400
      6 C5         -1.9805   -2.3520    1.4602 C.2       1 <0>         0.0007
      7 C6         -2.3015   -1.2006    2.1065 C.2       1 <0>         0.3927
      8 O1         -2.8584   -1.1575    3.3346 O.3       1 <0>        -0.4646
      9 O2         -2.0002   -0.1100    1.3819 O.3       1 <0>        -0.2581
     10 O3         -2.1719   -3.6104    1.9510 O.3       1 <0>        -0.3453
     11 O4         -1.0230   -2.8288   -0.6289 O.2       1 <0>        -0.3446
     12 O5          0.5662   -0.4660   -1.2270 O.3       1 <0>        -0.5245
     13 O6          1.3220    2.0204    0.0003 O.3       1 <0>        -0.5612
     14 H2         -0.5459    1.8868   -0.8726 H         1 <0>         0.0582
     15 H3         -0.5289    1.8773    0.9072 H         1 <0>         0.0693
     16 H4          0.0804   -0.1829   -2.0137 H         1 <0>         0.3820
     17 H5          1.3852    2.9853    0.0049 H         1 <0>         0.3871
     18 H6         -2.0384   -0.1949   -0.6974 H         1 <0>         0.1564
     19 H7         -2.5703   -3.6326    2.8319 H         1 <0>         0.4297
@<TRIPOS>BOND
     1    1    2 1
     2    1   13 1
     3    1   14 1
     4    1   15 1
     5    2    3 1
     6    2   12 1
     7    2    4 1
     8    4    9 1
     9    4   18 1
    10    4    5 1
    11    5   11 2
    12    5    6 1
    13    6   10 1
    14    6    7 2
    15    7    8 1
    16    7    9 1
    17   10   19 1
    18   12   16 1
    19   13   17 1
@<TRIPOS>MOLECULE
ZINC12503222
   35    35     0     0     0
SMALL
USER_CHARGES

@<TRIPOS>ATOM
      1 C1         -0.5408    0.9427    2.9430 C.2       1 <0>        -0.1595
      2 C2          0.6481    1.4498    2.5349 C.2       1 <0>         0.1084
      3 N1          1.4226    0.6589    1.8149 N.2       1 <0>        -0.4814
      4 C3          1.0491   -0.5655    1.5116 C.2       1 <0>         0.1948
      5 S1         -0.4630   -0.6962    2.2389 S.3       1 <0>         0.1504
      6 N2          1.7361   -1.5193    0.7700 N.pl3     1 <0>        -0.5707
      7 C4          1.1620   -2.7393    0.5229 C.cat     1 <0>         0.7572
      8 N3          1.8838   -3.7166   -0.0228 N.pl3     1 <0>        -0.7684
      9 N4         -0.1174   -2.9474    0.8285 N.pl3     1 <0>        -0.7928
     10 C5          1.0672    2.8539    2.8868 C.3       1 <0>        -0.0298
     11 S2          1.9731    2.8385    4.4584 S.3       1 <0>        -0.2308
     12 C6          2.4008    4.5795    4.7354 C.3       1 <0>        -0.0845
     13 C7          3.1787    4.7112    6.0463 C.3       1 <0>        -0.1409
     14 C8          3.6321    6.1378    6.2202 C.2       1 <0>         0.5038
     15 N5          2.9088    6.9682    6.8983 N.2       1 <0>        -0.9665
     16 S3          1.5370    6.4400    7.6609 S.o2      1 <0>         2.6543
     17 O1          0.6319    6.0433    6.6398 O.2       1 <0>        -1.1012
     18 O2          1.9593    5.5560    8.6902 O.2       1 <0>        -1.1004
     19 N6          0.8586    7.7509    8.4116 N.2       1 <0>        -1.3386
     20 N7          4.8106    6.5551    5.6599 N.pl3     1 <0>        -0.8311
     21 H1         -1.3187    1.4019    3.5349 H         1 <0>         0.2235
     22 H2          1.4776   -4.5799   -0.1976 H         1 <0>         0.4493
     23 H3         -0.7349   -2.2003    0.8657 H         1 <0>         0.4340
     24 H4         -0.4318   -3.8462    1.0138 H         1 <0>         0.4480
     25 H5          1.7105    3.2489    2.1005 H         1 <0>         0.1061
     26 H6          0.1828    3.4837    2.9834 H         1 <0>         0.1146
     27 H7          3.0160    4.9383    3.9102 H         1 <0>         0.0880
     28 H8          1.4884    5.1730    4.7931 H         1 <0>         0.1256
     29 H9          2.5355    4.4302    6.8802 H         1 <0>         0.1053
     30 H10         4.0480    4.0542    6.0205 H         1 <0>         0.1026
     31 H11         0.0380    7.6486    8.9186 H         1 <0>         0.3211
     32 H12         5.3532    5.9323    5.1513 H         1 <0>         0.4000
     33 H13         5.1025    7.4734    5.7718 H         1 <0>         0.4102
     34 H14         2.6217   -1.3216    0.4273 H         1 <0>         0.4543
     35 H15         2.8157   -3.5650   -0.2453 H         1 <0>         0.4450
@<TRIPOS>BOND
     1    1    5 1
     2    1    2 2
     3    1   21 1
     4    2    3 1
     5    2   10 1
     6    3    4 2
     7    4    5 1
     8    4    6 1
     9    6    7 1
    10    6   34 1
    11    7    8 2
    12    7    9 1
    13    8   22 1
    14    8   35 1
    15    9   23 1
    16    9   24 1
    17   10   11 1
    18   10   25 1
    19   10   26 1
    20   11   12 1
    21   12   13 1
    22   12   27 1
    23   12   28 1
    24   13   14 1
    25   13   29 1
    26   13   30 1
    27   14   15 2
    28   14   20 1
    29   15   16 1
    30   16   17 2
    31   16   18 2
    32   16   19 1
    33   19   31 1
    34   20   32 1
    35   20   33 1
@<TRIPOS>MOLECULE
ZINC03927870
   36    38     0     0     0
SMALL
USER_CHARGES

@<TRIPOS>ATOM
      1 C1         -0.0164    1.3595    0.0095 C.2       1 <0>         0.3000
      2 N1          1.2004    1.8202    0.0004 N.2       1 <0>        -0.4660
      3 C2          2.0746    0.7848   -0.0135 C.ar      1 <0>        -0.1052
      4 C3          3.4758    0.6755   -0.0279 C.ar      1 <0>         0.5375
      5 N2          4.0170   -0.5380   -0.0400 N.ar      1 <0>        -0.6081
      6 C4          3.2621   -1.6244   -0.0386 C.ar      1 <0>         0.5574
      7 N3          1.9447   -1.5690   -0.0253 N.ar      1 <0>        -0.5732
      8 C5          1.3163   -0.3974   -0.0126 C.ar      1 <0>         0.3307
      9 N4          0.0021   -0.0041    0.0020 N.pl3     1 <0>        -0.4487
     10 C6         -1.1670   -0.8869    0.0089 C.3       1 <0>         0.3098
     11 H1         -0.9749   -1.7745   -0.5939 H         1 <0>         0.1244
     12 C7         -1.5297   -1.2878    1.4560 C.3       1 <0>         0.0347
     13 H2         -1.1286   -2.2737    1.6911 H         1 <0>         0.0947
     14 C8         -3.0745   -1.3163    1.4617 C.3       1 <0>         0.0460
     15 H3         -3.4673   -0.5878    2.1709 H         1 <0>         0.0963
     16 C9         -3.4624   -0.9293    0.0174 C.3       1 <0>         0.0883
     17 H4         -3.6242   -1.8235   -0.5846 H         1 <0>         0.1025
     18 O1         -2.3293   -0.1859   -0.4847 O.3       1 <0>        -0.3421
     19 C10        -4.7182   -0.0552    0.0192 C.3       1 <0>         0.1472
     20 O2         -5.1265    0.1947   -1.3272 O.3       1 <0>        -0.7536
     21 P1         -6.4161    1.0827   -1.7019 P.3       1 <0>         2.2116
     22 O3         -6.2971    2.4710   -1.0344 O.2       1 <0>        -1.1059
     23 O4         -6.4991    1.2610   -3.2999 O.3       1 <0>        -0.8964
     24 O5         -7.6931    0.3756   -1.1956 O.3       1 <0>        -1.1051
     25 O6         -3.5499   -2.6266    1.7767 O.3       1 <0>        -0.5447
     26 O7         -1.0407   -0.3158    2.3823 O.3       1 <0>        -0.5422
     27 F1          3.8626   -2.8345   -0.0517 F         1 <0>        -0.0752
     28 N5          4.2737    1.8060   -0.0299 N.pl3     1 <0>        -0.8098
     29 H5         -0.9091    1.9671    0.0254 H         1 <0>         0.2285
     30 H6         -5.5181   -0.5695    0.5519 H         1 <0>         0.0783
     31 H7         -4.5015    0.8911    0.5147 H         1 <0>         0.0681
     32 H8         -3.2833   -2.9421    2.6511 H         1 <0>         0.3841
     33 H9         -1.2406   -0.5178    3.3066 H         1 <0>         0.3853
     34 H10         3.8670    2.6866   -0.0213 H         1 <0>         0.4240
     35 H11         5.2396    1.7179   -0.0399 H         1 <0>         0.4118
     36 H12        -7.2538    1.7868   -3.5983 H         1 <0>         0.4153
@<TRIPOS>BOND
     1    1    9 1
     2    1    2 2
     3    1   29 1
     4    2    3 1
     5    3    8 ar
     6    3    4 ar
     7    4    5 ar
     8    4   28 1
     9    5    6 ar
    10    6    7 ar
    11    6   27 1
    12    7    8 ar
    13    8    9 1
    14    9   10 1
    15   10   11 1
    16   10   18 1
    17   10   12 1
    18   12   13 1
    19   12   14 1
    20   12   26 1
    21   14   15 1
    22   14   16 1
    23   14   25 1
    24   16   17 1
    25   16   18 1
    26   16   19 1
    27   19   20 1
    28   19   30 1
    29   19   31 1
    30   20   21 1
    31   21   22 2
    32   21   23 1
    33   21   24 1
    34   23   36 1
    35   25   32 1
    36   26   33 1
    37   28   34 1
    38   28   35 1
@<TRIPOS>MOLECULE
ZINC03137566
   29    30     0     0     0
SMALL
USER_CHARGES

@<TRIPOS>ATOM
      1 C1         -0.0187    1.5258    0.0104 C.3       1 <0>        -0.1670
      2 C2          0.0021   -0.0041    0.0020 C.3       1 <0>        -0.1116
      3 C3         -1.4333   -0.5336    0.0129 C.3       1 <0>        -0.0681
      4 C4         -2.0615   -0.1674    1.3443 C.2       1 <0>         0.5453
      5 O1         -1.5741   -0.5351    2.3917 O.2       1 <0>        -0.4514
      6 N1         -3.1836    0.5826    1.3194 N.am      1 <0>        -0.6668
      7 C5         -3.7341    0.9959    0.1722 C.2       1 <0>         0.7165
      8 O2         -4.7439    1.6678    0.2422 O.2       1 <0>        -0.5208
      9 N2         -3.2536    0.7238   -1.0464 N.am      1 <0>        -0.6669
     10 C6         -2.1375   -0.0140   -1.2262 C.2       1 <0>         0.5459
     11 O3         -1.7140   -0.2529   -2.3368 O.2       1 <0>        -0.4515
     12 C7         -1.3757   -2.0369   -0.0761 C.ar      1 <0>        -0.0830
     13 C8         -0.1534   -2.6790   -0.1432 C.ar      1 <0>        -0.0909
     14 C9         -0.1006   -4.0579   -0.2248 C.ar      1 <0>        -0.1129
     15 C10        -1.2701   -4.7948   -0.2390 C.ar      1 <0>        -0.1047
     16 C11        -2.4924   -4.1527   -0.1710 C.ar      1 <0>        -0.1111
     17 C12        -2.5451   -2.7741   -0.0850 C.ar      1 <0>        -0.1123
     18 H1          1.0039    1.9031    0.0027 H         1 <0>         0.0800
     19 H2         -0.5459    1.8868   -0.8726 H         1 <0>         0.0570
     20 H3         -0.5289    1.8773    0.9072 H         1 <0>         0.0561
     21 H4          0.5123   -0.3556   -0.8948 H         1 <0>         0.1014
     22 H5          0.5293   -0.3651    0.8851 H         1 <0>         0.1009
     23 H6         -3.7213    1.0667   -1.8240 H         1 <0>         0.4376
     24 H7          0.7603   -2.1033   -0.1321 H         1 <0>         0.1358
     25 H8          0.8544   -4.5595   -0.2779 H         1 <0>         0.1316
     26 H9         -1.2288   -5.8721   -0.3035 H         1 <0>         0.1292
     27 H10        -3.4061   -4.7284   -0.1824 H         1 <0>         0.1292
     28 H11        -3.5000   -2.2727   -0.0282 H         1 <0>         0.1150
     29 H12        -3.6035    0.8290    2.1584 H         1 <0>         0.4376
@<TRIPOS>BOND
     1    1    2 1
     2    1   18 1
     3    1   19 1
     4    1   20 1
     5    2    3 1
     6    2   21 1
     7    2   22 1
     8    3   10 1
     9    3    4 1
    10    3   12 1
    11    4    5 2
    12    4    6 am
    13    6    7 am
    14    6   29 1
    15    7    8 2
    16    7    9 am
    17    9   10 am
    18    9   23 1
    19   10   11 2
    20   12   17 ar
    21   12   13 ar
    22   13   14 ar
    23   13   24 1
    24   14   15 ar
    25   14   25 1
    26   15   16 ar
    27   15   26 1
    28   16   17 ar
    29   16   27 1
    30   17   28 1
@<TRIPOS>MOLECULE
ZINC02568036
   32    34     0     0     0
SMALL
USER_CHARGES

@<TRIPOS>ATOM
      1 C1         -0.0172    1.4045    0.0101 C.ar      1 <0>        -0.1259
      2 C2          1.1636    2.1010    0.0034 C.ar      1 <0>        -0.0327
      3 C3          2.3742    1.4239   -0.0136 C.ar      1 <0>        -0.0327
      4 C4          2.4051    0.0371   -0.0240 C.ar      1 <0>        -0.0347
      5 C5          1.2366   -0.6798   -0.0180 C.ar      1 <0>        -0.1242
      6 C6          0.0021   -0.0032   -0.0004 C.ar      1 <0>         0.0787
      7 C7         -1.2126   -0.7340    0.0068 C.2       1 <0>        -0.0685
      8 C8         -1.3171   -2.1467    0.0033 C.2       1 <0>        -0.1190
      9 C9         -2.6378   -2.4595    0.0134 C.2       1 <0>        -0.1994
     10 C10        -3.3654   -1.1809    0.0235 C.2       1 <0>         0.1141
     11 O1         -2.4429   -0.1937    0.0239 O.3       1 <0>        -0.1228
     12 C11        -4.7433   -1.0189    0.0350 C.2       1 <0>        -0.0262
     13 N1         -5.2686    0.2015    0.0433 N.2       1 <0>        -0.1234
     14 N2         -6.5465    0.3542   -0.0442 N.am      1 <0>        -0.4272
     15 C12        -7.5705   -0.7065   -0.0476 C.3       1 <0>        -0.0150
     16 C13        -8.8705    0.0630   -0.1703 C.2       1 <0>         0.4649
     17 O2        -10.1101   -0.4502   -0.2169 O.3       1 <0>        -0.6201
     18 N3         -8.5418    1.3266   -0.2208 N.2       1 <0>        -0.6477
     19 C14        -7.2209    1.5159   -0.1453 C.2       1 <0>         0.6655
     20 O3         -6.6894    2.6096   -0.1680 O.2       1 <0>        -0.5351
     21 N4          3.6426    2.1870   -0.0211 N.pl3     1 <0>        -0.0100
     22 O4          3.6190    3.5038   -0.0117 O.2       1 <0>        -0.1829
     23 O5          4.7948    1.5492   -0.0372 O.3       1 <0>        -0.1857
     24 H1         -0.9586    1.9336    0.0278 H         1 <0>         0.1545
     25 H2          1.1512    3.1809    0.0110 H         1 <0>         0.1564
     26 H3          3.3533   -0.4798   -0.0372 H         1 <0>         0.1568
     27 H4          1.2629   -1.7594   -0.0269 H         1 <0>         0.1523
     28 H5         -0.4954   -2.8475   -0.0064 H         1 <0>         0.1596
     29 H6         -3.0688   -3.4498    0.0136 H         1 <0>         0.1642
     30 H7         -5.3888   -1.8847    0.0372 H         1 <0>         0.1509
     31 H8         -7.4343   -1.3695   -0.9020 H         1 <0>         0.1080
     32 H9         -7.5438   -1.2695    0.8853 H         1 <0>         0.1075
@<TRIPOS>BOND
     1    1    6 ar
     2    1    2 ar
     3    1   24 1
     4    2    3 ar
     5    2   25 1
     6    3    4 ar
     7    3   21 1
     8    4    5 ar
     9    4   26 1
    10    5    6 ar
    11    5   27 1
    12    6    7 1
    13    7   11 1
    14    7    8 2
    15    8    9 1
    16    8   28 1
    17    9   10 2
    18    9   29 1
    19   10   11 1
    20   10   12 1
    21   12   13 2
    22   12   30 1
    23   13   14 1
    24   14   19 am
    25   14   15 1
    26   15   16 1
    27   15   31 1
    28   15   32 1
    29   16   17 1
    30   16   18 2
    31   18   19 1
    32   19   20 2
    33   21   22 2
    34   21   23 1
@<TRIPOS>MOLECULE
ZINC00049142
   30    31     0     0     0
SMALL
USER_CHARGES

@<TRIPOS>ATOM
      1 C1         -0.0173    1.4248    0.0099 C.3       1 <0>         0.0318
      2 O1          0.0021   -0.0041    0.0020 O.3       1 <0>        -0.3202
      3 C2          0.6264   -0.6189    1.0425 C.ar      1 <0>        -0.1049
      4 C3          1.2090    0.1247    2.0623 C.ar      1 <0>         0.1128
      5 N1          1.8079   -0.5068    3.0587 N.ar      1 <0>        -0.5245
      6 C4          1.8560   -1.8298    3.0914 C.ar      1 <0>         0.5750
      7 N2          1.3119   -2.5696    2.1373 N.ar      1 <0>        -0.5899
      8 C5          0.6917   -2.0057    1.1136 C.ar      1 <0>         0.1763
      9 N3          2.4928   -2.4565    4.1516 N.2       1 <0>        -1.0517
     10 S1          2.5653   -4.1098    4.2136 S.o2      1 <0>         2.6458
     11 O2          1.2314   -4.5687    4.3852 O.2       1 <0>        -1.0223
     12 O3          3.3783   -4.5218    3.1235 O.2       1 <0>        -1.0223
     13 C6          3.4382   -4.5382    5.6830 C.ar      1 <0>        -0.6753
     14 C7          4.8137   -4.6779    5.6524 C.ar      1 <0>         0.0241
     15 C8          5.5010   -5.0136    6.8022 C.ar      1 <0>        -0.2218
     16 C9          4.8091   -5.2110    7.9905 C.ar      1 <0>         0.2455
     17 C10         3.4274   -5.0699    8.0177 C.ar      1 <0>        -0.2219
     18 C11         2.7469   -4.7285    6.8654 C.ar      1 <0>         0.0240
     19 N4          5.5010   -5.5511    9.1551 N.pl3     1 <0>        -0.8770
     20 H1          1.0053    1.8021    0.0021 H         1 <0>         0.0469
     21 H2         -0.5445    1.7859   -0.8732 H         1 <0>         0.0898
     22 H3         -0.5275    1.7763    0.9067 H         1 <0>         0.0469
     23 H4          1.1735    1.2039    2.0413 H         1 <0>         0.1498
     24 H5          0.2460   -2.6148    0.3411 H         1 <0>         0.1529
     25 H6          5.3509   -4.5246    4.7281 H         1 <0>         0.1354
     26 H7          6.5752   -5.1229    6.7775 H         1 <0>         0.1226
     27 H8          2.8864   -5.2231    8.9398 H         1 <0>         0.1225
     28 H9          1.6732   -4.6143    6.8869 H         1 <0>         0.1354
     29 H10         6.4658   -5.6497    9.1348 H         1 <0>         0.3972
     30 H11         5.0168   -5.6887    9.9843 H         1 <0>         0.3972
@<TRIPOS>BOND
     1    1    2 1
     2    1   20 1
     3    1   21 1
     4    1   22 1
     5    2    3 1
     6    3    8 ar
     7    3    4 ar
     8    4    5 ar
     9    4   23 1
    10    5    6 ar
    11    6    7 ar
    12    6    9 1
    13    7    8 ar
    14    8   24 1
    15    9   10 1
    16   10   11 2
    17   10   12 2
    18   10   13 1
    19   13   18 ar
    20   13   14 ar
    21   14   15 ar
    22   14   25 1
    23   15   16 ar
    24   15   26 1
    25   16   17 ar
    26   16   19 1
    27   17   18 ar
    28   17   27 1
    29   18   28 1
    30   19   29 1
    31   19   30 1
@<TRIPOS>MOLECULE
ZINC00049141
   31    32     0     0     0
SMALL
USER_CHARGES

@<TRIPOS>ATOM
      1 C1         -0.0173    1.4248    0.0099 C.3       1 <0>         0.0329
      2 O1          0.0021   -0.0041    0.0020 O.3       1 <0>        -0.2996
      3 C2         -1.1994   -0.6370    0.0101 C.ar      1 <0>         0.2411
      4 C3         -1.2547   -2.0298    0.0090 C.ar      1 <0>        -0.0968
      5 C4         -2.5018   -2.6301    0.0179 C.ar      1 <0>        -0.1082
      6 C5         -3.6258   -1.8031    0.0275 C.ar      1 <0>         0.2955
      7 N1         -3.4751   -0.4885    0.0278 N.ar      1 <0>        -0.2454
      8 N2         -2.3179    0.0665    0.0245 N.ar      1 <0>        -0.2581
      9 N3         -4.9027   -2.3598    0.0362 N.pl3     1 <0>        -1.0282
     10 S1         -6.2348   -1.3761    0.0476 S.o2      1 <0>         2.6919
     11 O2         -7.3704   -2.2300    0.0278 O.2       1 <0>        -0.9525
     12 O3         -6.0217   -0.4156    1.0729 O.2       1 <0>        -0.9295
     13 C6         -6.2427   -0.4922   -1.4767 C.ar      1 <0>        -0.7314
     14 C7         -5.5920    0.7243   -1.5721 C.ar      1 <0>         0.0508
     15 C8         -5.5963    1.4197   -2.7653 C.ar      1 <0>        -0.2230
     16 C9         -6.2551    0.8958   -3.8703 C.ar      1 <0>         0.2710
     17 C10        -6.9078   -0.3264   -3.7710 C.ar      1 <0>        -0.2230
     18 C11        -6.8948   -1.0192   -2.5764 C.ar      1 <0>         0.0268
     19 N4         -6.2618    1.5967   -5.0785 N.pl3     1 <0>        -0.8663
     20 H1          1.0053    1.8021    0.0021 H         1 <0>         0.1028
     21 H2         -0.5445    1.7859   -0.8732 H         1 <0>         0.0634
     22 H3         -0.5275    1.7763    0.9067 H         1 <0>         0.0651
     23 H4         -0.3519   -2.6225    0.0010 H         1 <0>         0.1646
     24 H5         -2.6020   -3.7055    0.0171 H         1 <0>         0.1640
     25 H6         -5.0802    1.1311   -0.7125 H         1 <0>         0.1531
     26 H7         -5.0882    2.3698   -2.8390 H         1 <0>         0.1296
     27 H8         -7.4213   -0.7363   -4.6281 H         1 <0>         0.1295
     28 H9         -7.3983   -1.9716   -2.4997 H         1 <0>         0.1379
     29 H10        -5.8060    2.4502   -5.1465 H         1 <0>         0.4034
     30 H11        -6.7222    1.2299   -5.8494 H         1 <0>         0.4028
     31 H12        -5.0115   -3.3237    0.0357 H         1 <0>         0.4357
@<TRIPOS>BOND
     1    1    2 1
     2    1   20 1
     3    1   21 1
     4    1   22 1
     5    2    3 1
     6    3    8 ar
     7    3    4 ar
     8    4    5 ar
     9    4   23 1
    10    5    6 ar
    11    5   24 1
    12    6    7 ar
    13    6    9 1
    14    7    8 ar
    15    9   10 1
    16    9   31 1
    17   10   11 2
    18   10   12 2
    19   10   13 1
    20   13   18 ar
    21   13   14 ar
    22   14   15 ar
    23   14   25 1
    24   15   16 ar
    25   15   26 1
    26   16   17 ar
    27   16   19 1
    28   17   18 ar
    29   17   27 1
    30   18   28 1
    31   19   29 1
    32   19   30 1
@<TRIPOS>MOLECULE
ZINC19419017
   47    46     0     0     0
SMALL
USER_CHARGES

@<TRIPOS>ATOM
      1 C1          1.4248    2.0064   -0.2725 C.3       1 <0>         0.0262
      2 C2          1.2589    0.5400   -0.6763 C.3       1 <0>        -0.0250
      3 N1         -0.0612    0.0600   -0.2464 N.4       1 <0>        -0.3293
      4 C3         -1.1077    0.7715   -0.9925 C.3       1 <0>        -0.0859
      5 C4         -0.9693    0.4706   -2.4626 C.2       1 <0>         0.5013
      6 O1         -0.0245   -0.1871   -2.8640 O.co2     1 <0>        -0.6720
      7 O2         -1.8022    0.8850   -3.2507 O.co2     1 <0>        -0.6576
      8 C5         -0.1672   -1.3815   -0.5083 C.3       1 <0>        -0.0920
      9 C6         -1.4566   -1.9039    0.0712 C.2       1 <0>         0.4963
     10 O3         -2.1899   -1.1578    0.6974 O.co2     1 <0>        -0.6864
     11 O4         -1.7663   -3.0725   -0.0860 O.co2     1 <0>        -0.6713
     12 N2          2.7450    2.4864   -0.7024 N.3       1 <0>        -0.4894
     13 C7          2.8516    3.9433   -0.5473 C.3       1 <0>         0.0498
     14 C8          1.9652    4.6330   -1.5863 C.3       1 <0>        -0.0049
     15 N3          2.1462    6.0880   -1.4958 N.4       1 <0>        -0.3322
     16 C9          3.5128    6.4379   -1.9056 C.3       1 <0>        -0.0837
     17 C10         3.7377    7.9133   -1.6965 C.2       1 <0>         0.4930
     18 O5          2.8425    8.6088   -1.2476 O.co2     1 <0>        -0.6741
     19 O6          4.8148    8.4114   -1.9761 O.co2     1 <0>        -0.6671
     20 C11         1.1831    6.7572   -2.3805 C.3       1 <0>        -0.0801
     21 C12        -0.2133    6.5444   -1.8554 C.2       1 <0>         0.4988
     22 O7         -0.3834    5.9927   -0.7815 O.co2     1 <0>        -0.6839
     23 O8         -1.1731    6.9240   -2.5045 O.co2     1 <0>        -0.6677
     24 C13         3.8184    1.7992    0.0280 C.3       1 <0>        -0.0144
     25 C14         5.1228    1.9856   -0.7034 C.2       1 <0>         0.4969
     26 O9          5.1398    2.5450   -1.7866 O.co2     1 <0>        -0.6684
     27 O10         6.1611    1.5771   -0.2119 O.co2     1 <0>        -0.7127
     28 H1          0.6480    2.6045   -0.7488 H         1 <0>         0.0931
     29 H2          1.3403    2.0969    0.8104 H         1 <0>         0.0372
     30 H3          1.3435    0.4496   -1.7593 H         1 <0>         0.1749
     31 H4          2.0358   -0.0581   -0.2000 H         1 <0>         0.1026
     32 H5         -2.0877    0.4443   -0.6453 H         1 <0>         0.1418
     33 H6         -1.0042    1.8444   -0.8299 H         1 <0>         0.1128
     34 H7         -0.1549   -1.5573   -1.5840 H         1 <0>         0.1636
     35 H8          0.6743   -1.8976   -0.0462 H         1 <0>         0.1017
     36 H9          2.5262    4.2269    0.4536 H         1 <0>         0.0396
     37 H10         3.8876    4.2493   -0.6928 H         1 <0>         0.1029
     38 H11         2.2435    4.2936   -2.5840 H         1 <0>         0.1205
     39 H12         0.9212    4.3842   -1.3959 H         1 <0>         0.1331
     40 H13         4.2275    5.8730   -1.3071 H         1 <0>         0.1222
     41 H14         3.6494    6.1954   -2.9594 H         1 <0>         0.1172
     42 H15         1.4004    7.8248   -2.4128 H         1 <0>         0.1467
     43 H16         1.2613    6.3399   -3.3844 H         1 <0>         0.1042
     44 H17         3.9012    2.2179    1.0310 H         1 <0>         0.0326
     45 H18         3.5887    0.7359    0.0959 H         1 <0>         0.0745
     46 H19        -0.1763    0.2318    0.7411 H         1 <0>         0.3962
     47 H20         1.9933    6.3874   -0.5444 H         1 <0>         0.4184
@<TRIPOS>BOND
     1    1    2 1
     2    1   12 1
     3    1   28 1
     4    1   29 1
     5    2    3 1
     6    2   30 1
     7    2   31 1
     8    3    4 1
     9    3    8 1
    10    3   46 1
    11    4    5 1
    12    4   32 1
    13    4   33 1
    14    5    6 2
    15    5    7 1
    16    8    9 1
    17    8   34 1
    18    8   35 1
    19    9   10 2
    20    9   11 1
    21   12   13 1
    22   12   24 1
    23   13   14 1
    24   13   36 1
    25   13   37 1
    26   14   15 1
    27   14   38 1
    28   14   39 1
    29   15   16 1
    30   15   20 1
    31   15   47 1
    32   16   17 1
    33   16   40 1
    34   16   41 1
    35   17   18 2
    36   17   19 1
    37   20   21 1
    38   20   42 1
    39   20   43 1
    40   21   22 2
    41   21   23 1
    42   24   25 1
    43   24   44 1
    44   24   45 1
    45   25   26 2
    46   25   27 1
@<TRIPOS>MOLECULE
ZINC39949130
   50    53     0     0     0
SMALL
USER_CHARGES

@<TRIPOS>ATOM
      1 C1         -0.0187    1.5258    0.0104 C.3       1 <0>        -0.1540
      2 C2          0.0021   -0.0041    0.0020 C.3       1 <0>        -0.1269
      3 C3          0.7182   -0.4975   -1.2568 C.3       1 <0>         0.1478
      4 H1          1.7103   -0.0491   -1.3098 H         1 <0>         0.1001
      5 C4          0.8493   -2.0210   -1.2049 C.3       1 <0>         0.0639
      6 O1         -0.4420   -2.6041   -1.0184 O.3       1 <0>        -0.5666
      7 N1         -0.0549   -0.1139   -2.4405 N.am      1 <0>        -0.7096
      8 C5          0.5610    0.0279   -3.6309 C.2       1 <0>         0.5250
      9 O2          1.7554   -0.1622   -3.7221 O.2       1 <0>        -0.5389
     10 C6         -0.2343    0.4225   -4.8486 C.3       1 <0>        -0.1008
     11 H2         -0.7046    1.3914   -4.6804 H         1 <0>         0.1135
     12 C7          0.6907    0.5050   -6.0606 C.3       1 <0>         0.0813
     13 N2          1.1691   -0.8076   -6.4843 N.3       1 <0>        -0.5382
     14 C8          0.6760   -1.9224   -5.6701 C.3       1 <0>         0.1200
     15 H3          1.1190   -1.8448   -4.6773 H         1 <0>         0.0726
     16 C9          1.1267   -3.2448   -6.2998 C.3       1 <0>        -0.0810
     17 C10         0.3919   -4.4119   -5.6441 C.3       1 <0>        -0.0974
     18 H4          0.5919   -4.4544   -4.5734 H         1 <0>         0.1217
     19 C11         0.5956   -5.7555   -6.2939 C.2       1 <0>         0.1484
     20 N3         -0.5633   -6.1897   -6.7008 N.2       1 <0>        -0.4654
     21 C12        -1.5800   -5.3184   -6.5122 C.ar      1 <0>         0.0614
     22 C13        -1.0627   -4.1470   -5.9268 C.ar      1 <0>        -0.1380
     23 C14        -1.7106   -2.9235   -5.8177 C.ar      1 <0>        -0.0160
     24 C15        -3.0728   -2.9417   -6.0754 C.ar      1 <0>        -0.0901
     25 C16        -3.6744   -4.1207   -6.4944 C.ar      1 <0>        -0.1180
     26 C17        -2.9594   -5.3370   -6.7661 C.ar      1 <0>        -0.0671
     27 C18        -0.8274   -1.8036   -5.5342 C.2       1 <0>        -0.0516
     28 C19        -1.3024   -0.6225   -5.1210 C.2       1 <0>        -0.1442
     29 C20         2.6352   -0.8298   -6.5745 C.3       1 <0>         0.0231
     30 H5          1.0039    1.9031    0.0027 H         1 <0>         0.0547
     31 H6         -0.5459    1.8868   -0.8726 H         1 <0>         0.0541
     32 H7         -0.5289    1.8773    0.9072 H         1 <0>         0.0588
     33 H8          0.5293   -0.3651    0.8851 H         1 <0>         0.0772
     34 H9         -1.0205   -0.3814    0.0098 H         1 <0>         0.0778
     35 H10         1.2788   -2.3807   -2.1399 H         1 <0>         0.0472
     36 H11         1.4980   -2.3018   -0.3753 H         1 <0>         0.0545
     37 H12        -0.4349   -3.5701   -0.9761 H         1 <0>         0.3792
     38 H13        -1.0102    0.0381   -2.3676 H         1 <0>         0.4041
     39 H14         0.1503    0.9675   -6.8865 H         1 <0>         0.0821
     40 H15         1.5482    1.1290   -5.8086 H         1 <0>         0.0674
     41 H16         0.9052   -3.2315   -7.3669 H         1 <0>         0.0795
     42 H17         2.2003   -3.3666   -6.1561 H         1 <0>         0.0779
     43 H18         1.5390   -6.2697   -6.4037 H         1 <0>         0.1936
     44 H19        -3.6617   -2.0450   -5.9514 H         1 <0>         0.1305
     45 H20        -4.7436   -4.1196   -6.6468 H         1 <0>         0.1288
     46 H21        -3.4539   -6.2312   -7.1156 H         1 <0>         0.1411
     47 H22        -2.3566   -0.4257   -4.9939 H         1 <0>         0.1371
     48 H23         3.0625   -0.6698   -5.5846 H         1 <0>         0.0466
     49 H24         2.9610   -1.7962   -6.9591 H         1 <0>         0.0662
     50 H25         2.9698   -0.0397   -7.2467 H         1 <0>         0.0666
@<TRIPOS>BOND
     1    1    2 1
     2    1   30 1
     3    1   31 1
     4    1   32 1
     5    2    3 1
     6    2   33 1
     7    2   34 1
     8    3    4 1
     9    3    5 1
    10    3    7 1
    11    5    6 1
    12    5   35 1
    13    5   36 1
    14    6   37 1
    15    7    8 am
    16    7   38 1
    17    8    9 2
    18    8   10 1
    19   10   11 1
    20   10   28 1
    21   10   12 1
    22   12   13 1
    23   12   39 1
    24   12   40 1
    25   13   14 1
    26   13   29 1
    27   14   15 1
    28   14   27 1
    29   14   16 1
    30   16   17 1
    31   16   41 1
    32   16   42 1
    33   17   18 1
    34   17   22 1
    35   17   19 1
    36   19   20 2
    37   19   43 1
    38   20   21 1
    39   21   26 ar
    40   21   22 ar
    41   22   23 ar
    42   23   24 ar
    43   23   27 1
    44   24   25 ar
    45   24   44 1
    46   25   26 ar
    47   25   45 1
    48   26   46 1
    49   27   28 2
    50   28   47 1
    51   29   48 1
    52   29   49 1
    53   29   50 1
@<TRIPOS>MOLECULE
ZINC19156872
   42    44     0     0     0
SMALL
USER_CHARGES

@<TRIPOS>ATOM
      1 C1          1.9705    1.2934   -1.7976 C.3       1 <0>         0.0249
      2 N1          1.9417   -0.1635   -1.6117 N.3       1 <0>        -0.5463
      3 C2          2.6511   -0.5520   -0.3848 C.3       1 <0>         0.0582
      4 C3          2.6670   -2.0781   -0.2694 C.3       1 <0>         0.0566
      5 N2          1.2860   -2.5802   -0.2573 N.3       1 <0>        -0.5280
      6 C4          0.5766   -2.1917   -1.4842 C.3       1 <0>         0.0571
      7 C5          0.5607   -0.6656   -1.5996 C.3       1 <0>         0.0583
      8 C6          1.2572   -4.0372   -0.0715 C.3       1 <0>         0.1675
      9 C7          1.9717   -4.3948    1.2063 C.ar      1 <0>        -0.0766
     10 C8          1.7464   -3.6577    2.3538 C.ar      1 <0>        -0.0902
     11 C9          2.4018   -3.9857    3.5258 C.ar      1 <0>        -0.1239
     12 C10         3.2821   -5.0512    3.5505 C.ar      1 <0>        -0.1185
     13 C11         3.5067   -5.7890    2.4032 C.ar      1 <0>        -0.1205
     14 C12         2.8481   -5.4635    1.2323 C.ar      1 <0>        -0.1131
     15 C13        -0.1731   -4.5057    0.0047 C.ar      1 <0>        -0.0763
     16 C14        -1.0887   -3.8091    0.7712 C.ar      1 <0>        -0.0895
     17 C15        -2.4007   -4.2389    0.8411 C.ar      1 <0>        -0.1240
     18 C16        -2.7972   -5.3649    0.1442 C.ar      1 <0>        -0.1185
     19 C17        -1.8819   -6.0609   -0.6230 C.ar      1 <0>        -0.1206
     20 C18        -0.5709   -5.6287   -0.6963 C.ar      1 <0>        -0.1133
     21 H1          1.4309    1.7745   -0.9818 H         1 <0>         0.0265
     22 H2          3.0044    1.6387   -1.8027 H         1 <0>         0.0686
     23 H3          1.4976    1.5482   -2.7460 H         1 <0>         0.0689
     24 H4          3.6748   -0.1796   -0.4232 H         1 <0>         0.0793
     25 H5          2.1415   -0.1272    0.4800 H         1 <0>         0.0427
     26 H6          3.2005   -2.5016   -1.1204 H         1 <0>         0.0428
     27 H7          3.1675   -2.3677    0.6546 H         1 <0>         0.0843
     28 H8          1.0862   -2.6165   -2.3490 H         1 <0>         0.0429
     29 H9         -0.4471   -2.5642   -1.4458 H         1 <0>         0.0837
     30 H10         0.0272   -0.2421   -0.7486 H         1 <0>         0.0428
     31 H11         0.0602   -0.3760   -2.5236 H         1 <0>         0.0794
     32 H12         1.7535   -4.5206   -0.9129 H         1 <0>         0.0570
     33 H13         1.0586   -2.8252    2.3345 H         1 <0>         0.1274
     34 H14         2.2263   -3.4094    4.4222 H         1 <0>         0.1211
     35 H15         3.7947   -5.3071    4.4660 H         1 <0>         0.1205
     36 H16         4.1947   -6.6212    2.4224 H         1 <0>         0.1216
     37 H17         3.0207   -6.0422    0.3369 H         1 <0>         0.1186
     38 H18        -0.7789   -2.9294    1.3157 H         1 <0>         0.1272
     39 H19        -3.1158   -3.6951    1.4405 H         1 <0>         0.1210
     40 H20        -3.8221   -5.7010    0.1994 H         1 <0>         0.1204
     41 H21        -2.1916   -6.9408   -1.1672 H         1 <0>         0.1215
     42 H22         0.1434   -6.1703   -1.2987 H         1 <0>         0.1185
@<TRIPOS>BOND
     1    1    2 1
     2    1   21 1
     3    1   22 1
     4    1   23 1
     5    2    7 1
     6    2    3 1
     7    3    4 1
     8    3   24 1
     9    3   25 1
    10    4    5 1
    11    4   26 1
    12    4   27 1
    13    5    6 1
    14    5    8 1
    15    6    7 1
    16    6   28 1
    17    6   29 1
    18    7   30 1
    19    7   31 1
    20    8    9 1
    21    8   15 1
    22    8   32 1
    23    9   14 ar
    24    9   10 ar
    25   10   11 ar
    26   10   33 1
    27   11   12 ar
    28   11   34 1
    29   12   13 ar
    30   12   35 1
    31   13   14 ar
    32   13   36 1
    33   14   37 1
    34   15   20 ar
    35   15   16 ar
    36   16   17 ar
    37   16   38 1
    38   17   18 ar
    39   17   39 1
    40   18   19 ar
    41   18   40 1
    42   19   20 ar
    43   19   41 1
    44   20   42 1
@<TRIPOS>MOLECULE
ZINC19156872
   43    45     0     0     0
SMALL
USER_CHARGES

@<TRIPOS>ATOM
      1 C1         -0.0178    1.4648    0.0101 C.3       1 <0>         0.0194
      2 N1          0.0021   -0.0041    0.0020 N.3       1 <0>        -0.5421
      3 C2          0.6054   -0.5158   -1.2366 C.3       1 <0>         0.0269
      4 C3          0.5529   -2.0452   -1.2320 C.3       1 <0>        -0.0041
      5 N2          1.2823   -2.5567   -0.0641 N.4       1 <0>        -0.3836
      6 C4          0.6533   -2.0570    1.1655 C.3       1 <0>        -0.0044
      7 C5          0.7065   -0.5278    1.1808 C.3       1 <0>         0.0270
      8 C6          1.2470   -4.0253   -0.0699 C.3       1 <0>         0.1340
      9 C7          1.8939   -4.5383   -1.3306 C.ar      1 <0>        -0.1317
     10 C8          3.0379   -3.9329   -1.8162 C.ar      1 <0>        -0.1218
     11 C9          3.6312   -4.4035   -2.9726 C.ar      1 <0>        -0.1029
     12 C10         3.0810   -5.4798   -3.6432 C.ar      1 <0>        -0.0921
     13 C11         1.9376   -6.0858   -3.1571 C.ar      1 <0>        -0.1034
     14 C12         1.3466   -5.6179   -1.9983 C.ar      1 <0>        -0.0863
     15 C13         1.9953   -4.5504    1.1282 C.ar      1 <0>        -0.1313
     16 C14         3.1696   -3.9423    1.5307 C.ar      1 <0>        -0.1223
     17 C15         3.8559   -4.4240    2.6297 C.ar      1 <0>        -0.1026
     18 C16         3.3677   -5.5135    3.3265 C.ar      1 <0>        -0.0923
     19 C17         2.1929   -6.1211    2.9245 C.ar      1 <0>        -0.1031
     20 C18         1.5043   -5.6368    1.8280 C.ar      1 <0>        -0.0866
     21 H1          1.0047    1.8421    0.0024 H         1 <0>         0.0391
     22 H2         -0.5450    1.8259   -0.8730 H         1 <0>         0.0841
     23 H3         -0.5280    1.8163    0.9069 H         1 <0>         0.0846
     24 H4          0.0516   -0.1355   -2.0950 H         1 <0>         0.1252
     25 H5          1.6430   -0.1877   -1.2984 H         1 <0>         0.0590
     26 H6         -0.4855   -2.3730   -1.1840 H         1 <0>         0.1396
     27 H7          1.0127   -2.4272   -2.1434 H         1 <0>         0.1367
     28 H8         -0.3857   -2.3847    1.2013 H         1 <0>         0.1396
     29 H9          1.1874   -2.4478    2.0316 H         1 <0>         0.1367
     30 H10         1.7458   -0.1998    1.1589 H         1 <0>         0.0590
     31 H11         0.2266   -0.1562    2.0862 H         1 <0>         0.1252
     32 H12         0.2118   -4.3641   -0.0289 H         1 <0>         0.1489
     33 H13         3.4678   -3.0920   -1.2923 H         1 <0>         0.1134
     34 H14         4.5246   -3.9301   -3.3524 H         1 <0>         0.1352
     35 H15         3.5442   -5.8471   -4.5471 H         1 <0>         0.1363
     36 H16         1.5075   -6.9265   -3.6812 H         1 <0>         0.1378
     37 H17         0.4554   -6.0937   -1.6165 H         1 <0>         0.1336
     38 H18         3.5510   -3.0911    0.9864 H         1 <0>         0.1132
     39 H19         4.7738   -3.9493    2.9438 H         1 <0>         0.1352
     40 H20         3.9043   -5.8903    4.1847 H         1 <0>         0.1363
     41 H21         1.8116   -6.9725    3.4686 H         1 <0>         0.1378
     42 H22         0.5845   -6.1091    1.5162 H         1 <0>         0.1336
     43 H23         2.2406   -2.2435   -0.1027 H         1 <0>         0.4132
@<TRIPOS>BOND
     1    1    2 1
     2    1   21 1
     3    1   22 1
     4    1   23 1
     5    2    7 1
     6    2    3 1
     7    3    4 1
     8    3   24 1
     9    3   25 1
    10    4    5 1
    11    4   26 1
    12    4   27 1
    13    5    6 1
    14    5    8 1
    15    5   43 1
    16    6    7 1
    17    6   28 1
    18    6   29 1
    19    7   30 1
    20    7   31 1
    21    8    9 1
    22    8   15 1
    23    8   32 1
    24    9   14 ar
    25    9   10 ar
    26   10   11 ar
    27   10   33 1
    28   11   12 ar
    29   11   34 1
    30   12   13 ar
    31   12   35 1
    32   13   14 ar
    33   13   36 1
    34   14   37 1
    35   15   20 ar
    36   15   16 ar
    37   16   17 ar
    38   16   38 1
    39   17   18 ar
    40   17   39 1
    41   18   19 ar
    42   18   40 1
    43   19   20 ar
    44   19   41 1
    45   20   42 1
@<TRIPOS>MOLECULE
ZINC19166988
   36    36     0     0     0
SMALL
USER_CHARGES

@<TRIPOS>ATOM
      1 C1         -0.0187    1.5258    0.0104 C.3       1 <0>        -0.1655
      2 C2          0.0021   -0.0041    0.0020 C.3       1 <0>         0.1344
      3 C3          0.7421   -0.5109    1.2415 C.3       1 <0>        -0.1632
      4 N1         -1.3723   -0.5112    0.0124 N.am      1 <0>        -0.7188
      5 C4         -2.0508   -0.6427   -1.1446 C.2       1 <0>         0.5506
      6 O1         -1.5224   -0.3406   -2.1968 O.2       1 <0>        -0.5237
      7 C5         -3.4379   -1.1545   -1.1341 C.ar      1 <0>        -0.1044
      8 C6         -4.0496   -1.4968    0.0728 C.ar      1 <0>        -0.0859
      9 C7         -5.3442   -1.9732    0.0757 C.ar      1 <0>        -0.1095
     10 C8         -6.0360   -2.1125   -1.1144 C.ar      1 <0>        -0.0942
     11 C9         -5.4353   -1.7754   -2.3144 C.ar      1 <0>        -0.0890
     12 C10        -4.1433   -1.2919   -2.3306 C.ar      1 <0>        -0.0587
     13 C11        -7.4498   -2.6341   -1.1037 C.3       1 <0>         0.0598
     14 N2         -8.3858   -1.5092   -0.9747 N.3       1 <0>        -0.4929
     15 N3         -9.7627   -1.9761   -0.9608 N.4       1 <0>        -0.3737
     16 C12       -10.6682   -0.8266   -0.8309 C.3       1 <0>        -0.0362
     17 H1          1.0039    1.9031    0.0027 H         1 <0>         0.0716
     18 H2         -0.5459    1.8868   -0.8726 H         1 <0>         0.0607
     19 H3         -0.5289    1.8773    0.9072 H         1 <0>         0.0575
     20 H4          0.5123   -0.3556   -0.8948 H         1 <0>         0.0926
     21 H5          0.2319   -0.1594    2.1383 H         1 <0>         0.0620
     22 H6          0.7568   -1.6008    1.2356 H         1 <0>         0.0631
     23 H7          1.7647   -0.1336    1.2338 H         1 <0>         0.0788
     24 H8         -1.7940   -0.7522    0.8520 H         1 <0>         0.3985
     25 H9         -3.5104   -1.3892    1.0024 H         1 <0>         0.1345
     26 H10        -5.8187   -2.2385    1.0089 H         1 <0>         0.1311
     27 H11        -5.9806   -1.8868   -3.2399 H         1 <0>         0.1375
     28 H12        -3.6773   -1.0246   -3.2675 H         1 <0>         0.1467
     29 H13        -7.6477   -3.1665   -2.0340 H         1 <0>         0.1182
     30 H14        -7.5800   -3.3136   -0.2614 H         1 <0>         0.0837
     31 H15        -8.1814   -0.9613   -0.1524 H         1 <0>         0.3948
     32 H16        -9.9609   -2.4648   -1.8211 H         1 <0>         0.4458
     33 H17       -10.4541   -0.2987    0.0984 H         1 <0>         0.1206
     34 H18       -10.5218   -0.1517   -1.6742 H         1 <0>         0.1328
     35 H19       -11.7004   -1.1766   -0.8206 H         1 <0>         0.1349
     36 H20        -9.8982   -2.6009   -0.1802 H         1 <0>         0.4058
@<TRIPOS>BOND
     1    1    2 1
     2    1   17 1
     3    1   18 1
     4    1   19 1
     5    2    3 1
     6    2    4 1
     7    2   20 1
     8    3   21 1
     9    3   22 1
    10    3   23 1
    11    4    5 am
    12    4   24 1
    13    5    6 2
    14    5    7 1
    15    7   12 ar
    16    7    8 ar
    17    8    9 ar
    18    8   25 1
    19    9   10 ar
    20    9   26 1
    21   10   11 ar
    22   10   13 1
    23   11   12 ar
    24   11   27 1
    25   12   28 1
    26   13   14 1
    27   13   29 1
    28   13   30 1
    29   14   15 1
    30   14   31 1
    31   15   16 1
    32   15   32 1
    33   15   36 1
    34   16   33 1
    35   16   34 1
    36   16   35 1
@<TRIPOS>MOLECULE
ZINC19166988
   36    36     0     0     0
SMALL
USER_CHARGES

@<TRIPOS>ATOM
      1 C1         -0.0187    1.5258    0.0104 C.3       1 <0>        -0.1635
      2 C2          0.0021   -0.0041    0.0020 C.3       1 <0>         0.1344
      3 C3          0.7421   -0.5109    1.2415 C.3       1 <0>        -0.1667
      4 N1         -1.3723   -0.5112    0.0124 N.am      1 <0>        -0.7165
      5 C4         -1.6432   -1.7342   -0.4849 C.2       1 <0>         0.5477
      6 O1         -0.7471   -2.4165   -0.9420 O.2       1 <0>        -0.5202
      7 C5         -3.0302   -2.2459   -0.4744 C.ar      1 <0>        -0.0906
      8 C6         -4.0624   -1.4627    0.0445 C.ar      1 <0>        -0.0858
      9 C7         -5.3545   -1.9459    0.0509 C.ar      1 <0>        -0.0933
     10 C8         -5.6282   -3.2042   -0.4552 C.ar      1 <0>        -0.1469
     11 C9         -4.6096   -3.9859   -0.9706 C.ar      1 <0>        -0.0958
     12 C10        -3.3141   -3.5121   -0.9886 C.ar      1 <0>        -0.0587
     13 C11        -7.0420   -3.7258   -0.4445 C.3       1 <0>         0.0549
     14 N2         -7.7139   -3.3451   -1.6941 N.4       1 <0>        -0.3748
     15 N3         -9.0780   -3.8484   -1.6838 N.3       1 <0>        -0.4944
     16 C12        -9.7822   -3.4858   -2.9210 C.3       1 <0>        -0.0256
     17 H1          1.0039    1.9031    0.0027 H         1 <0>         0.0798
     18 H2         -0.5459    1.8868   -0.8726 H         1 <0>         0.0628
     19 H3         -0.5289    1.8773    0.9072 H         1 <0>         0.0629
     20 H4          0.5123   -0.3556   -0.8948 H         1 <0>         0.0931
     21 H5          0.2319   -0.1594    2.1383 H         1 <0>         0.0587
     22 H6          0.7568   -1.6008    1.2356 H         1 <0>         0.0610
     23 H7          1.7647   -0.1336    1.2338 H         1 <0>         0.0727
     24 H8         -2.0874    0.0333    0.3772 H         1 <0>         0.3991
     25 H9         -3.8499   -0.4806    0.4405 H         1 <0>         0.1399
     26 H10        -6.1541   -1.3409    0.4521 H         1 <0>         0.1421
     27 H11        -4.8299   -4.9674   -1.3638 H         1 <0>         0.1399
     28 H12        -2.5206   -4.1213   -1.3956 H         1 <0>         0.1506
     29 H13        -7.0279   -4.8121   -0.3559 H         1 <0>         0.1379
     30 H14        -7.5803   -3.2993    0.4019 H         1 <0>         0.1493
     31 H15        -7.7270   -2.3395   -1.7761 H         1 <0>         0.4419
     32 H16        -9.0940   -4.8466   -1.5379 H         1 <0>         0.3965
     33 H17       -10.8000   -3.8745   -2.8869 H         1 <0>         0.1332
     34 H18        -9.8108   -2.4005   -3.0180 H         1 <0>         0.1023
     35 H19        -9.2584   -3.9133   -3.7759 H         1 <0>         0.0692
     36 H20        -7.2156   -3.7400   -2.4777 H         1 <0>         0.4030
@<TRIPOS>BOND
     1    1    2 1
     2    1   17 1
     3    1   18 1
     4    1   19 1
     5    2    3 1
     6    2    4 1
     7    2   20 1
     8    3   21 1
     9    3   22 1
    10    3   23 1
    11    4    5 am
    12    4   24 1
    13    5    6 2
    14    5    7 1
    15    7   12 ar
    16    7    8 ar
    17    8    9 ar
    18    8   25 1
    19    9   10 ar
    20    9   26 1
    21   10   11 ar
    22   10   13 1
    23   11   12 ar
    24   11   27 1
    25   12   28 1
    26   13   14 1
    27   13   29 1
    28   13   30 1
    29   14   15 1
    30   14   31 1
    31   14   36 1
    32   15   16 1
    33   15   32 1
    34   16   33 1
    35   16   34 1
    36   16   35 1
@<TRIPOS>MOLECULE
ZINC16052277
   55    58     0     0     0
SMALL
USER_CHARGES

@<TRIPOS>ATOM
      1 C1         -0.5461    1.2743   -0.2320 C.3       1 <0>        -0.1560
      2 C2         -0.4666   -0.2530   -0.1871 C.3       1 <0>        -0.0453
      3 H1         -1.4592   -0.6589    0.0079 H         1 <0>         0.0822
      4 C3          0.0263   -0.7634   -1.5141 C.ar      1 <0>        -0.0252
      5 C4         -0.1417   -0.0044   -2.6533 C.ar      1 <0>        -0.1490
      6 C5          0.2959   -0.4787   -3.8787 C.ar      1 <0>        -0.1028
      7 C6          0.9030   -1.7155   -3.9752 C.ar      1 <0>        -0.1698
      8 C7          1.0860   -2.4894   -2.8386 C.ar      1 <0>         0.1397
      9 C8          0.6521   -2.0077   -1.5976 C.ar      1 <0>        -0.1499
     10 C9          0.8762   -2.7957   -0.3694 C.2       1 <0>         0.4207
     11 C10         0.7079   -2.1631    0.8963 C.2       1 <0>        -0.4948
     12 C11         0.4798   -0.6753    0.9356 C.3       1 <0>        -0.0016
     13 H2          1.4330   -0.1601    0.8173 H         1 <0>         0.0457
     14 C12        -0.1353   -0.2820    2.2822 C.3       1 <0>         0.1259
     15 H3         -1.1440   -0.6885    2.3559 H         1 <0>         0.1128
     16 C13         0.7314   -0.8546    3.4035 C.3       1 <0>        -0.1043
     17 H4          1.7637   -0.5702    3.1997 H         1 <0>         0.0960
     18 C14         0.3442   -0.2543    4.7411 C.3       1 <0>         0.0034
     19 H5          0.2506    0.8264    4.6345 H         1 <0>         0.1482
     20 C15        -0.9612   -0.8166    5.2282 C.2       1 <0>         0.3794
     21 O1         -1.7109   -0.1300    5.8914 O.2       1 <0>        -0.5232
     22 C16        -1.3244   -2.1929    4.8999 C.2       1 <0>        -0.5048
     23 C17        -0.5565   -2.9172    4.0238 C.2       1 <0>         0.3172
     24 C18         0.6619   -2.3654    3.3960 C.3       1 <0>         0.1311
     25 C19         0.7743   -2.9078    2.0038 C.2       1 <0>         0.2955
     26 O2          0.9567   -4.2355    1.8590 O.3       1 <0>        -0.5938
     27 O3          1.7861   -2.8574    4.1282 O.3       1 <0>        -0.5803
     28 O4         -0.9282   -4.1719    3.7296 O.3       1 <0>        -0.5123
     29 C20        -2.5160   -2.8036    5.5104 C.2       1 <0>         0.5847
     30 O5         -2.8858   -3.9056    5.1522 O.2       1 <0>        -0.5520
     31 N1         -3.1976   -2.1418    6.4664 N.am      1 <0>        -0.8769
     32 N2          1.3934   -0.5525    5.7251 N.4       1 <0>        -0.3723
     33 C21         2.6332    0.1366    5.3429 C.3       1 <0>        -0.0458
     34 C22         0.9655   -0.0905    7.0523 C.3       1 <0>        -0.0455
     35 O6         -0.1835    1.1422    2.3894 O.3       1 <0>        -0.5514
     36 O7          1.1993   -3.9680   -0.4370 O.2       1 <0>        -0.4712
     37 O8          1.6812   -3.7054   -2.9289 O.3       1 <0>        -0.4774
     38 H6          0.4588    1.6881   -0.3166 H         1 <0>         0.0477
     39 H7         -1.1394    1.5820   -1.0931 H         1 <0>         0.0481
     40 H8         -1.0142    1.6408    0.6815 H         1 <0>         0.0856
     41 H9         -0.6167    0.9635   -2.5895 H         1 <0>         0.1255
     42 H10         0.1610    0.1228   -4.7655 H         1 <0>         0.1186
     43 H11         1.2351   -2.0804   -4.9359 H         1 <0>         0.1215
     44 H12        -2.9449   -1.2357    6.7030 H         1 <0>         0.3988
     45 H13        -3.9407   -2.5717    6.9179 H         1 <0>         0.3778
     46 H14         2.4788    1.2147    5.3894 H         1 <0>         0.1138
     47 H15         3.4321   -0.1459    6.0285 H         1 <0>         0.1166
     48 H16         2.9086   -0.1475    4.3273 H         1 <0>         0.1249
     49 H17         0.7895    0.9848    7.0234 H         1 <0>         0.1173
     50 H18         0.0456   -0.6018    7.3358 H         1 <0>         0.1238
     51 H19         1.7441   -0.3117    7.7824 H         1 <0>         0.1140
     52 H20         0.6715    1.5754    2.2611 H         1 <0>         0.3658
     53 H21         2.6423   -3.6814   -2.8258 H         1 <0>         0.3838
     54 H22         1.8301   -3.8220    4.1800 H         1 <0>         0.4053
     55 H23         1.5564   -1.5478    5.7518 H         1 <0>         0.4342
@<TRIPOS>BOND
     1    1    2 1
     2    1   38 1
     3    1   39 1
     4    1   40 1
     5    2    3 1
     6    2   12 1
     7    2    4 1
     8    4    9 ar
     9    4    5 ar
    10    5    6 ar
    11    5   41 1
    12    6    7 ar
    13    6   42 1
    14    7    8 ar
    15    7   43 1
    16    8    9 ar
    17    8   37 1
    18    9   10 1
    19   10   11 1
    20   10   36 2
    21   11   25 2
    22   11   12 1
    23   12   13 1
    24   12   14 1
    25   14   15 1
    26   14   16 1
    27   14   35 1
    28   16   17 1
    29   16   24 1
    30   16   18 1
    31   18   19 1
    32   18   20 1
    33   18   32 1
    34   20   21 2
    35   20   22 1
    36   22   23 2
    37   22   29 1
    38   23   24 1
    39   23   28 1
    40   24   25 1
    41   24   27 1
    42   25   26 1
    43   27   54 1
    44   29   30 2
    45   29   31 am
    46   31   44 1
    47   31   45 1
    48   32   33 1
    49   32   34 1
    50   32   55 1
    51   33   46 1
    52   33   47 1
    53   33   48 1
    54   34   49 1
    55   34   50 1
    56   34   51 1
    57   35   52 1
    58   37   53 1
@<TRIPOS>MOLECULE
ZINC16052277
   54    57     0     0     0
SMALL
USER_CHARGES

@<TRIPOS>ATOM
      1 C1         -0.5710    1.3570   -0.0023 C.3       1 <0>        -0.1514
      2 C2         -0.5702   -0.1701    0.0916 C.3       1 <0>        -0.0473
      3 H1         -1.5799   -0.5171    0.3113 H         1 <0>         0.0807
      4 C3         -0.1223   -0.7479   -1.2238 C.ar      1 <0>        -0.0212
      5 C4         -0.2659   -0.0179   -2.3850 C.ar      1 <0>        -0.1507
      6 C5          0.1300   -0.5535   -3.5994 C.ar      1 <0>        -0.1102
      7 C6          0.6709   -1.8228   -3.6625 C.ar      1 <0>        -0.1738
      8 C7          0.8286   -2.5685   -2.5035 C.ar      1 <0>         0.1343
      9 C8          0.4369   -2.0252   -1.2739 C.ar      1 <0>        -0.1409
     10 C9          0.6362   -2.7841   -0.0233 C.2       1 <0>         0.4128
     11 C10         0.5179   -2.1035    1.2229 C.2       1 <0>        -0.4980
     12 C11         0.3679   -0.6052    1.2163 C.3       1 <0>        -0.0011
     13 H2          1.3449   -0.1446    1.0701 H         1 <0>         0.0389
     14 C12        -0.2079   -0.1374    2.5564 C.3       1 <0>         0.1181
     15 H3         -1.2353   -0.4880    2.6552 H         1 <0>         0.1009
     16 C13         0.6428   -0.7183    3.6856 C.3       1 <0>        -0.0746
     17 H4          1.6857   -0.4950    3.4606 H         1 <0>         0.0739
     18 C14         0.3052   -0.0561    5.0073 C.3       1 <0>         0.0670
     19 H5          0.2664    1.0241    4.8666 H         1 <0>         0.0572
     20 C15        -1.0209   -0.5334    5.5278 C.2       1 <0>         0.4192
     21 O1         -1.7251    0.2123    6.1769 O.2       1 <0>        -0.5635
     22 C16        -1.4594   -1.8987    5.2489 C.2       1 <0>        -0.5150
     23 C17        -0.7420   -2.6899    4.3881 C.2       1 <0>         0.3354
     24 C18         0.4949   -2.2229    3.7283 C.3       1 <0>         0.1501
     25 C19         0.5604   -2.8148    2.3534 C.2       1 <0>         0.3021
     26 O2          0.6717   -4.1541    2.2499 O.3       1 <0>        -0.6035
     27 O3          1.6018   -2.7493    4.4630 O.3       1 <0>        -0.5370
     28 O4         -1.1822   -3.9322    4.1393 O.3       1 <0>        -0.5646
     29 C20        -2.6728   -2.4264    5.8929 C.2       1 <0>         0.5844
     30 O5         -3.1019   -3.5202    5.5781 O.2       1 <0>        -0.5730
     31 N1         -3.3088   -1.6977    6.8315 N.am      1 <0>        -0.8816
     32 N2          1.3506   -0.3771    5.9882 N.3       1 <0>        -0.5075
     33 C21         2.6252    0.2571    5.6257 C.3       1 <0>         0.0321
     34 C22         0.9371    0.0094    7.3438 C.3       1 <0>         0.0302
     35 O6         -0.1807    1.2900    2.6176 O.3       1 <0>        -0.5559
     36 O7          0.8972   -3.9733   -0.0563 O.2       1 <0>        -0.4842
     37 O8          1.3586   -3.8161   -2.5610 O.3       1 <0>        -0.4778
     38 H6          0.4551    1.7168   -0.0783 H         1 <0>         0.0460
     39 H7         -1.1308    1.6665   -0.8848 H         1 <0>         0.0422
     40 H8         -1.0377    1.7756    0.8893 H         1 <0>         0.0854
     41 H9         -0.6891    0.9750   -2.3474 H         1 <0>         0.1239
     42 H10         0.0147    0.0256   -4.5037 H         1 <0>         0.1143
     43 H11         0.9707   -2.2351   -4.6146 H         1 <0>         0.1171
     44 H12        -3.0100   -0.7967    7.0310 H         1 <0>         0.3995
     45 H13        -4.0653   -2.0743    7.3077 H         1 <0>         0.3659
     46 H14         2.5110    1.3408    5.6479 H         1 <0>         0.0109
     47 H15         3.3950   -0.0419    6.3371 H         1 <0>         0.0595
     48 H16         2.9152   -0.0573    4.6231 H         1 <0>         0.0715
     49 H17         0.0908   -0.6034    7.6541 H         1 <0>         0.0698
     50 H18         1.7673   -0.1415    8.0338 H         1 <0>         0.0548
     51 H19         0.6465    1.0599    7.3494 H         1 <0>         0.0197
     52 H20         0.6944    1.6735    2.4681 H         1 <0>         0.3599
     53 H21         2.3210   -3.8392   -2.4699 H         1 <0>         0.3816
     54 H22         1.6364   -3.7154    4.4836 H         1 <0>         0.3734
@<TRIPOS>BOND
     1    1    2 1
     2    1   38 1
     3    1   39 1
     4    1   40 1
     5    2    3 1
     6    2   12 1
     7    2    4 1
     8    4    9 ar
     9    4    5 ar
    10    5    6 ar
    11    5   41 1
    12    6    7 ar
    13    6   42 1
    14    7    8 ar
    15    7   43 1
    16    8    9 ar
    17    8   37 1
    18    9   10 1
    19   10   11 1
    20   10   36 2
    21   11   25 2
    22   11   12 1
    23   12   13 1
    24   12   14 1
    25   14   15 1
    26   14   16 1
    27   14   35 1
    28   16   17 1
    29   16   24 1
    30   16   18 1
    31   18   19 1
    32   18   20 1
    33   18   32 1
    34   20   21 2
    35   20   22 1
    36   22   23 2
    37   22   29 1
    38   23   24 1
    39   23   28 1
    40   24   25 1
    41   24   27 1
    42   25   26 1
    43   27   54 1
    44   29   30 2
    45   29   31 am
    46   31   44 1
    47   31   45 1
    48   32   33 1
    49   32   34 1
    50   33   46 1
    51   33   47 1
    52   33   48 1
    53   34   49 1
    54   34   50 1
    55   34   51 1
    56   35   52 1
    57   37   53 1
@<TRIPOS>MOLECULE
ZINC35018256
   53    57     0     0     0
SMALL
NO_CHARGES

@<TRIPOS>ATOM
      1 C1         -0.0187    1.5258    0.0104 C.3       1 <0>        -0.1386
      2 C2          0.0021   -0.0041    0.0020 C.3       1 <0>        -0.1177
      3 C3          0.7182   -0.4975   -1.2568 C.3       1 <0>         0.1681
      4 C4          0.7553   -2.0062   -1.2592 C.2       1 <0>         0.0796
      5 C5         -0.4153   -2.7052   -1.5925 C.2       1 <0>         0.0458
      6 C6         -0.4108   -4.0628   -1.5905 C.2       1 <0>         0.0021
      7 N1          0.6870   -4.7185   -1.0052 N.4       1 <0>        -0.3378
      8 C7          1.9043   -4.0665   -0.8901 C.2       1 <0>         0.4419
      9 O1          3.0372   -4.7603   -0.6920 O.3       1 <0>        -0.4448
     10 C8          1.9290   -2.6959   -0.9832 C.2       1 <0>        -0.2534
     11 C9          3.2440   -1.9894   -0.7899 C.3       1 <0>         0.1527
     12 O2          3.0337   -0.6102   -0.4835 O.3       1 <0>        -0.3840
     13 C10         2.1368    0.0243   -1.2701 C.2       1 <0>         0.4571
     14 O3          2.4550    0.9676   -1.9548 O.2       1 <0>        -0.4164
     15 C11         0.8238   -5.9837   -1.7409 C.3       1 <0>         0.0561
     16 C12        -0.6047   -6.3156   -2.1321 C.ar      1 <0>        -0.1858
     17 C13        -1.3375   -5.1069   -2.0386 C.ar      1 <0>         0.1866
     18 N2         -2.6316   -5.0662   -2.3330 N.ar      1 <0>        -0.4104
     19 C14        -3.2905   -6.1527   -2.7147 C.ar      1 <0>         0.1992
     20 C15        -4.6678   -6.1089   -3.0245 C.2       1 <0>        -0.0606
     21 C16        -5.3102   -7.2380   -3.4064 C.2       1 <0>        -0.1169
     22 C17        -4.6365   -8.4721   -3.5069 C.2       1 <0>         0.2989
     23 C18        -3.2792   -8.5731   -3.2157 C.2       1 <0>        -0.0203
     24 C19        -2.5809   -7.4329   -2.8188 C.ar      1 <0>        -0.0988
     25 C20        -1.2036   -7.4695   -2.5118 C.ar      1 <0>         0.0082
     26 C21        -2.5723   -9.8993   -3.3278 C.3       1 <0>         0.0791
     27 N3         -2.0383  -10.0561   -4.6873 N.3       1 <0>        -0.5303
     28 C22        -0.9804   -9.0725   -4.9541 C.3       1 <0>         0.0088
     29 C23        -1.5523  -11.4248   -4.9074 C.3       1 <0>         0.0230
     30 O4         -5.3106   -9.5606   -3.8867 O.2       1 <0>        -0.4234
     31 O5          0.0252   -0.0308   -2.4161 O.3       1 <0>        -0.7666
     32 H1          1.0039    1.9031    0.0027 H         1 <0>         0.0459
     33 H2         -0.5459    1.8868   -0.8726 H         1 <0>         0.0737
     34 H3         -0.5289    1.8773    0.9072 H         1 <0>         0.0492
     35 H4          0.5293   -0.3651    0.8851 H         1 <0>         0.0484
     36 H5         -1.0205   -0.3814    0.0098 H         1 <0>         0.0679
     37 H6         -1.3149   -2.1658   -1.8496 H         1 <0>         0.2053
     38 H7          3.7880   -2.4605    0.0288 H         1 <0>         0.1270
     39 H8          3.8323   -2.0687   -1.7040 H         1 <0>         0.0885
     40 H9          1.4436   -5.8481   -2.6272 H         1 <0>         0.1577
     41 H10         1.2365   -6.7603   -1.0969 H         1 <0>         0.1628
     42 H11        -5.2077   -5.1759   -2.9573 H         1 <0>         0.1652
     43 H12        -6.3636   -7.1919   -3.6399 H         1 <0>         0.1625
     44 H13        -0.6436   -8.3906   -2.5781 H         1 <0>         0.1633
     45 H14        -1.7535   -9.9365   -2.6093 H         1 <0>         0.0581
     46 H15        -3.2760  -10.7050   -3.1187 H         1 <0>         0.1124
     47 H16        -0.1675   -9.2108   -4.2412 H         1 <0>         0.0300
     48 H17        -0.6027   -9.2109   -5.9672 H         1 <0>         0.0813
     49 H18        -1.3860   -8.0659   -4.8519 H         1 <0>         0.0660
     50 H19        -2.3736  -12.1284   -4.7711 H         1 <0>         0.0779
     51 H20        -1.1625  -11.5133   -5.9214 H         1 <0>         0.0782
     52 H21        -0.7601  -11.6483   -4.1928 H         1 <0>         0.0314
     53 H22         0.4056   -4.9772   -0.0714 H         1 <0>         0.4462
@<TRIPOS>BOND
     1    1    2 1
     2    1   32 1
     3    1   33 1
     4    1   34 1
     5    2    3 1
     6    2   35 1
     7    2   36 1
     8    3   13 1
     9    3    4 1
    10    3   31 1
    11    4   10 1
    12    4    5 2
    13    5    6 1
    14    5   37 1
    15    6   17 2
    16    6    7 1
    17    7    8 1
    18    7   15 1
    19    7   53 1
    20    8    9 1
    21    8   10 2
    22   10   11 1
    23   11   12 1
    24   11   38 1
    25   11   39 1
    26   12   13 1
    27   13   14 2
    28   15   16 1
    29   15   40 1
    30   15   41 1
    31   16   25 ar
    32   16   17 ar
    33   17   18 ar
    34   18   19 ar
    35   19   24 ar
    36   19   20 1
    37   20   21 2
    38   20   42 1
    39   21   22 1
    40   21   43 1
    41   22   23 1
    42   22   30 2
    43   23   24 2
    44   23   26 1
    45   24   25 ar
    46   25   44 1
    47   26   27 1
    48   26   45 1
    49   26   46 1
    50   27   28 1
    51   27   29 1
    52   28   47 1
    53   28   48 1
    54   28   49 1
    55   29   50 1
    56   29   51 1
    57   29   52 1
@<TRIPOS>MOLECULE
ZINC03860156
   36    38     0     0     0
SMALL
USER_CHARGES

@<TRIPOS>ATOM
      1 C1         -0.0158    1.3119    0.0093 C.ar      1 <0>         0.3576
      2 N1          1.0888    2.0360    0.0026 N.ar      1 <0>        -0.5943
      3 C2          2.2875    1.4625   -0.0119 C.ar      1 <0>         0.5063
      4 C3          2.3582    0.0588   -0.0202 C.ar      1 <0>        -0.1070
      5 C4          1.1547   -0.6659   -0.0126 C.ar      1 <0>         0.3090
      6 N2          0.0021   -0.0041    0.0020 N.ar      1 <0>        -0.5459
      7 N3          1.5110   -1.9908   -0.0227 N.pl3     1 <0>        -0.4678
      8 C5          2.8729   -2.0476   -0.0358 C.2       1 <0>         0.2728
      9 N4          3.3680   -0.8441   -0.0343 N.2       1 <0>        -0.4661
     10 C6          0.5956   -3.1347   -0.0195 C.3       1 <0>         0.3106
     11 H1         -0.2832   -2.9148    0.5866 H         1 <0>         0.1217
     12 C7          0.1775   -3.4928   -1.4629 C.3       1 <0>         0.0369
     13 H2          0.9267   -3.1463   -2.1747 H         1 <0>         0.0829
     14 C8          0.1056   -5.0362   -1.4608 C.3       1 <0>         0.0468
     15 H3          0.8193   -5.4528   -2.1716 H         1 <0>         0.0920
     16 C9          0.4888   -5.4280   -0.0165 C.3       1 <0>         0.0876
     17 H4         -0.4066   -5.5617    0.5906 H         1 <0>         0.1032
     18 O1          1.2661   -4.3138    0.4763 O.3       1 <0>        -0.3404
     19 C10         1.3272   -6.7078   -0.0164 C.3       1 <0>         0.1463
     20 O2          1.5723   -7.1166    1.3308 O.3       1 <0>        -0.7534
     21 P1          2.4256   -8.4288    1.7075 P.3       1 <0>         2.2117
     22 O3          3.8133   -8.3520    1.0326 O.2       1 <0>        -1.1063
     23 O4          2.6094   -8.5091    3.3050 O.3       1 <0>        -0.8963
     24 O5          1.6804   -9.6878    1.2109 O.3       1 <0>        -1.1050
     25 O6         -1.2191   -5.4762   -1.7672 O.3       1 <0>        -0.5339
     26 O7         -1.0998   -2.9297   -1.7685 O.3       1 <0>        -0.5288
     27 N5          3.4393    2.2295   -0.0193 N.pl3     1 <0>        -0.8200
     28 H5         -0.9693    1.8187    0.0257 H         1 <0>         0.2035
     29 H6          3.4551   -2.9572   -0.0459 H         1 <0>         0.2281
     30 H7          0.7880   -7.4954   -0.5427 H         1 <0>         0.0791
     31 H8          2.2767   -6.5201   -0.5176 H         1 <0>         0.0672
     32 H9         -1.5313   -5.2049   -2.6412 H         1 <0>         0.3790
     33 H10        -1.4113   -3.1237   -2.6632 H         1 <0>         0.3804
     34 H11         3.3774    3.1975   -0.0138 H         1 <0>         0.4086
     35 H12         4.3085    1.7992   -0.0299 H         1 <0>         0.4187
     36 H13         3.1153   -9.2769    3.6046 H         1 <0>         0.4152
@<TRIPOS>BOND
     1    1    6 ar
     2    1    2 ar
     3    1   28 1
     4    2    3 ar
     5    3    4 ar
     6    3   27 1
     7    4    9 1
     8    4    5 ar
     9    5    6 ar
    10    5    7 1
    11    7    8 1
    12    7   10 1
    13    8    9 2
    14    8   29 1
    15   10   11 1
    16   10   18 1
    17   10   12 1
    18   12   13 1
    19   12   14 1
    20   12   26 1
    21   14   15 1
    22   14   16 1
    23   14   25 1
    24   16   17 1
    25   16   18 1
    26   16   19 1
    27   19   20 1
    28   19   30 1
    29   19   31 1
    30   20   21 1
    31   21   22 2
    32   21   23 1
    33   21   24 1
    34   23   36 1
    35   25   32 1
    36   26   33 1
    37   27   34 1
    38   27   35 1
@<TRIPOS>MOLECULE
ZINC01532514
   25    25     0     0     0
SMALL
USER_CHARGES

@<TRIPOS>ATOM
      1 C1         -0.0184    1.5028    0.0103 C.3       1 <0>        -0.0987
      2 C2          0.0021   -0.0041    0.0020 C.ar      1 <0>         0.0850
      3 C3          0.0056   -0.6838   -1.2102 C.ar      1 <0>         0.1114
      4 C4          0.0253   -2.0897   -1.1984 C.ar      1 <0>        -0.1764
      5 C5          0.0403   -2.7378    0.0451 C.ar      1 <0>        -0.0740
      6 C6          0.0354   -1.9781    1.1959 C.ar      1 <0>         0.1093
      7 N1          0.0218   -0.6600    1.1427 N.ar      1 <0>        -0.4484
      8 C7          0.0612   -4.2426    0.1226 C.3       1 <0>         0.1693
      9 O1          0.0736   -4.6489    1.4926 O.3       1 <0>        -0.7558
     10 P1          0.0969   -6.1926    1.9492 P.3       1 <0>         2.2112
     11 O2          1.2966   -6.9072    1.2881 O.2       1 <0>        -1.1044
     12 O3          0.2384   -6.2765    3.5508 O.3       1 <0>        -0.8963
     13 O4         -1.2163   -6.8790    1.5116 O.3       1 <0>        -1.1021
     14 C8          0.0294   -2.8581   -2.4534 C.2       1 <0>         0.3816
     15 O5          0.0157   -2.2792   -3.5187 O.2       1 <0>        -0.4398
     16 O6         -0.0100   -0.0034   -2.3832 O.3       1 <0>        -0.4721
     17 H1          1.0042    1.8801    0.0026 H         1 <0>         0.0753
     18 H2         -0.5455    1.8639   -0.8728 H         1 <0>         0.0797
     19 H3         -0.5286    1.8543    0.9071 H         1 <0>         0.0783
     20 H4          0.0469   -2.4705    2.1571 H         1 <0>         0.1783
     21 H5         -0.8259   -4.6440   -0.3674 H         1 <0>         0.0803
     22 H6          0.9539   -4.6198   -0.3764 H         1 <0>         0.0822
     23 H7          0.0445   -3.9377   -2.4256 H         1 <0>         0.1169
     24 H8          0.8687    0.2065   -2.7279 H         1 <0>         0.3928
     25 H9          0.2591   -7.1791    3.8971 H         1 <0>         0.4165
@<TRIPOS>BOND
     1    1    2 1
     2    1   17 1
     3    1   18 1
     4    1   19 1
     5    2    7 ar
     6    2    3 ar
     7    3    4 ar
     8    3   16 1
     9    4    5 ar
    10    4   14 1
    11    5    6 ar
    12    5    8 1
    13    6    7 ar
    14    6   20 1
    15    8    9 1
    16    8   21 1
    17    8   22 1
    18    9   10 1
    19   10   11 2
    20   10   12 1
    21   10   13 1
    22   12   25 1
    23   14   15 2
    24   14   23 1
    25   16   24 1
@<TRIPOS>MOLECULE
ZINC19632644
   23    23     0     0     0
SMALL
USER_CHARGES

@<TRIPOS>ATOM
      1 C1         -0.0161    1.3371    0.0094 C.2       1 <0>        -0.1021
      2 C2          1.2587    1.7711   -0.0004 C.2       1 <0>         0.0893
      3 N1          2.0558    0.6583   -0.0140 N.pl3     1 <0>        -0.4281
      4 C3          1.2397   -0.4176   -0.0120 C.2       1 <0>         0.1395
      5 N2          0.0021   -0.0041    0.0020 N.2       1 <0>        -0.5154
      6 C4          3.5206    0.6384   -0.0281 C.3       1 <0>         0.1107
      7 C5          4.0443    0.6237    1.4094 C.3       1 <0>        -1.0308
      8 O1          3.5585   -0.5400    2.0814 O.3       1 <0>        -0.4874
      9 P1          3.4652    2.1157    2.2823 P.3       1 <0>         2.1990
     10 O2          3.9977    3.3916    1.5455 O.2       1 <0>        -1.1715
     11 O3          1.8988    2.1370    2.2974 O.3       1 <0>        -1.1492
     12 O4          4.0015    2.1007    3.7543 O.3       1 <0>        -1.1559
     13 P2          5.8670    0.5990    1.3918 P.3       1 <0>         2.2619
     14 O5          6.3958    0.5842    2.8434 O.2       1 <0>        -1.0796
     15 O6          6.3578   -0.6655    0.6520 O.3       1 <0>        -1.1282
     16 O7          6.4143    1.9101    0.6346 O.3       1 <0>        -0.8780
     17 H1         -0.8984    1.9597    0.0252 H         1 <0>         0.1439
     18 H2          1.5887    2.7994    0.0016 H         1 <0>         0.1608
     19 H3          1.5585   -1.4495   -0.0206 H         1 <0>         0.1717
     20 H4          3.8668   -0.2536   -0.5501 H         1 <0>         0.0632
     21 H5          3.8911    1.5261   -0.5408 H         1 <0>         0.0840
     22 H6          3.8286   -1.3728    1.6708 H         1 <0>         0.3142
     23 H7          7.3787    1.9634    0.5875 H         1 <0>         0.3879
@<TRIPOS>BOND
     1    1    5 1
     2    1    2 2
     3    1   17 1
     4    2    3 1
     5    2   18 1
     6    3    4 1
     7    3    6 1
     8    4    5 2
     9    4   19 1
    10    6    7 1
    11    6   20 1
    12    6   21 1
    13    7    8 1
    14    7    9 1
    15    7   13 1
    16    8   22 1
    17    9   10 2
    18    9   11 1
    19    9   12 1
    20   13   14 2
    21   13   15 1
    22   13   16 1
    23   16   23 1
@<TRIPOS>MOLECULE
ZINC01531674
   24    24     0     0     0
SMALL
USER_CHARGES

@<TRIPOS>ATOM
      1 C1         -0.0178    1.4648    0.0101 C.3       1 <0>         0.0232
      2 N1          0.0021   -0.0041    0.0020 N.3       1 <0>        -0.5399
      3 C2         -1.3645   -0.5504    0.0343 C.3       1 <0>         0.0442
      4 C3         -1.3002   -2.0430   -0.2990 C.3       1 <0>        -0.0952
      5 C4         -0.2462   -2.7055    0.5439 C.2       1 <0>        -0.0424
      6 C5          0.6887   -2.0237    1.1797 C.2       1 <0>        -0.1663
      7 C6          0.7856   -0.5259    1.1289 C.3       1 <0>         0.0982
      8 C7          1.6791   -2.7641    1.9736 C.2       1 <0>         0.5026
      9 O1          1.6259   -3.9767    2.0339 O.2       1 <0>        -0.5090
     10 O2          2.6468   -2.0982    2.6349 O.3       1 <0>        -0.3496
     11 C8          3.5757   -2.8816    3.3869 C.3       1 <0>         0.0336
     12 H1          1.0047    1.8421    0.0024 H         1 <0>         0.0725
     13 H2         -0.5450    1.8259   -0.8730 H         1 <0>         0.0735
     14 H3         -0.5280    1.8163    0.9069 H         1 <0>         0.0291
     15 H4         -1.7893   -0.4154    1.0290 H         1 <0>         0.0425
     16 H5         -1.9815   -0.0369   -0.7031 H         1 <0>         0.0858
     17 H6         -2.2679   -2.5019   -0.0964 H         1 <0>         0.0922
     18 H7         -1.0534   -2.1689   -1.3533 H         1 <0>         0.0996
     19 H8         -0.2543   -3.7817    0.6332 H         1 <0>         0.1304
     20 H9          1.8292   -0.2355    1.0081 H         1 <0>         0.0958
     21 H10         0.4023   -0.1075    2.0595 H         1 <0>         0.0524
     22 H11         4.0964   -3.5678    2.7190 H         1 <0>         0.0618
     23 H12         4.2994   -2.2239    3.8684 H         1 <0>         0.1040
     24 H13         3.0399   -3.4504    4.1467 H         1 <0>         0.0611
@<TRIPOS>BOND
     1    1    2 1
     2    1   12 1
     3    1   13 1
     4    1   14 1
     5    2    7 1
     6    2    3 1
     7    3    4 1
     8    3   15 1
     9    3   16 1
    10    4    5 1
    11    4   17 1
    12    4   18 1
    13    5    6 2
    14    5   19 1
    15    6    7 1
    16    6    8 1
    17    7   20 1
    18    7   21 1
    19    8    9 2
    20    8   10 1
    21   10   11 1
    22   11   22 1
    23   11   23 1
    24   11   24 1
@<TRIPOS>MOLECULE
ZINC01530968
   26    27     0     0     0
SMALL
USER_CHARGES

@<TRIPOS>ATOM
      1 C1          0.0636    1.5163   -0.0036 C.ar      1 <0>        -0.0924
      2 C2          0.0428    0.1581    0.2546 C.ar      1 <0>        -0.0606
      3 C3          1.2259   -0.5677    0.2439 C.ar      1 <0>         0.1357
      4 C4          2.4269    0.0710   -0.0259 C.ar      1 <0>        -0.0577
      5 C5          2.4439    1.4292   -0.2836 C.ar      1 <0>         0.0020
      6 C6          1.2625    2.1518   -0.2725 C.ar      1 <0>        -0.0411
      7 Cl1         1.2860    3.8570   -0.5969 Cl        1 <0>        -0.0504
      8 Cl2         3.9470    2.2295   -0.6209 Cl        1 <0>         0.0184
      9 C7          3.7128   -0.7147   -0.0376 C.3       1 <0>        -0.0047
     10 C8          4.2255   -0.8603    1.3721 C.ar      1 <0>        -0.2151
     11 C9          4.9549    0.1654    1.9545 C.ar      1 <0>         0.2970
     12 C10         5.4256    0.0293    3.2532 C.ar      1 <0>        -0.1658
     13 C11         5.1667   -1.1281    3.9638 C.ar      1 <0>        -0.0404
     14 C12         4.4394   -2.1503    3.3811 C.ar      1 <0>        -0.1664
     15 C13         3.9640   -2.0140    2.0875 C.ar      1 <0>         0.0564
     16 Cl3         3.0448   -3.2954    1.3615 Cl        1 <0>        -0.0705
     17 Cl4         4.1159   -3.6029    4.2751 Cl        1 <0>        -0.1003
     18 Cl5         6.3395    1.3114    3.9846 Cl        1 <0>        -0.0971
     19 O1          5.2090    1.3026    1.2542 O.3       1 <0>        -0.6475
     20 O2          1.2073   -1.9031    0.4981 O.3       1 <0>        -0.4551
     21 Cl6        -1.4620   -0.6387    0.5926 Cl        1 <0>        -0.0547
     22 H1         -0.8573    2.0805    0.0002 H         1 <0>         0.1463
     23 H2          3.5314   -1.7022   -0.4620 H         1 <0>         0.0744
     24 H3          4.4536   -0.1903   -0.6412 H         1 <0>         0.0915
     25 H4          5.5328   -1.2343    4.9742 H         1 <0>         0.1174
     26 H5          1.0945   -2.4519   -0.2901 H         1 <0>         0.3804
@<TRIPOS>BOND
     1    1    6 ar
     2    1    2 ar
     3    1   22 1
     4    2    3 ar
     5    2   21 1
     6    3    4 ar
     7    3   20 1
     8    4    5 ar
     9    4    9 1
    10    5    6 ar
    11    5    8 1
    12    6    7 1
    13    9   10 1
    14    9   23 1
    15    9   24 1
    16   10   15 ar
    17   10   11 ar
    18   11   12 ar
    19   11   19 1
    20   12   13 ar
    21   12   18 1
    22   13   14 ar
    23   13   25 1
    24   14   15 ar
    25   14   17 1
    26   15   16 1
    27   20   26 1
@<TRIPOS>MOLECULE
ZINC01530962
   24    23     0     0     0
SMALL
USER_CHARGES

@<TRIPOS>ATOM
      1 C1         -0.0349    1.5263   -0.1053 C.3       1 <0>        -0.1489
      2 C2          0.0029    0.0070    0.0711 C.3       1 <0>        -0.0863
      3 C3         -1.4266   -0.5342    0.1385 C.3       1 <0>        -0.0055
      4 C4         -1.3892   -2.0446    0.3803 C.3       1 <0>         0.2861
      5 F1         -0.6602   -2.6624   -0.6415 F         1 <0>        -0.1905
      6 F2         -0.7786   -2.3048    1.6118 F         1 <0>        -0.2070
      7 C5         -2.1329   -0.2510   -1.1623 C.2       1 <0>         0.4705
      8 O1         -1.6947   -0.7055   -2.2053 O.co2     1 <0>        -0.6665
      9 O2         -3.1424    0.4325   -1.1716 O.co2     1 <0>        -0.6830
     10 N1         -2.1466    0.1201    1.2392 N.3       1 <0>        -0.8169
     11 C6          1.3916    2.0787   -0.0761 C.3       1 <0>        -0.0057
     12 N2          1.3554    3.5375   -0.2455 N.4       1 <0>        -0.6363
     13 H1         -0.4993    1.7697   -1.0609 H         1 <0>         0.0915
     14 H2         -0.6136    1.9718    0.7039 H         1 <0>         0.0886
     15 H3          0.5227   -0.4441   -0.7741 H         1 <0>         0.0849
     16 H4          0.5283   -0.2387    0.9940 H         1 <0>         0.0736
     17 H5         -2.4063   -2.4364    0.3890 H         1 <0>         0.0989
     18 H6         -2.1850    1.1191    1.1027 H         1 <0>         0.3396
     19 H7          1.8560    1.8353    0.8795 H         1 <0>         0.1322
     20 H8          1.9703    1.6333   -0.8853 H         1 <0>         0.1328
     21 H9          0.9255    3.7628   -1.1301 H         1 <0>         0.4358
     22 H10         0.8197    3.9498    0.5036 H         1 <0>         0.4334
     23 H11         2.2961    3.9018   -0.2263 H         1 <0>         0.4326
     24 H12        -3.0726   -0.2662    1.3457 H         1 <0>         0.3460
@<TRIPOS>BOND
     1    1    2 1
     2    1   11 1
     3    1   13 1
     4    1   14 1
     5    2    3 1
     6    2   15 1
     7    2   16 1
     8    3    4 1
     9    3    7 1
    10    3   10 1
    11    4    5 1
    12    4    6 1
    13    4   17 1
    14    7    8 2
    15    7    9 1
    16   10   18 1
    17   10   24 1
    18   11   12 1
    19   11   19 1
    20   11   20 1
    21   12   21 1
    22   12   22 1
    23   12   23 1
@<TRIPOS>MOLECULE
ZINC01530961
   24    23     0     0     0
SMALL
USER_CHARGES

@<TRIPOS>ATOM
      1 C1         -0.0187    1.5258    0.0104 C.3       1 <0>        -0.1630
      2 C2          0.0021   -0.0041    0.0020 C.3       1 <0>        -0.1313
      3 C3         -1.4333   -0.5336    0.0129 C.3       1 <0>        -0.0026
      4 C4         -2.1352   -0.1312   -1.2857 C.3       1 <0>         0.2917
      5 F1         -1.4462   -0.6738   -2.3757 F         1 <0>        -0.1923
      6 F2         -3.4477   -0.6155   -1.2758 F         1 <0>        -0.1917
      7 C5         -1.4136   -2.0361    0.1285 C.2       1 <0>         0.5042
      8 O1         -1.9522   -2.5817    1.0764 O.co2     1 <0>        -0.6587
      9 O2         -0.8589   -2.7060   -0.7260 O.co2     1 <0>        -0.6740
     10 N1         -2.1568    0.0360    1.1574 N.3       1 <0>        -0.8058
     11 C6          1.4167    2.0553   -0.0004 C.3       1 <0>        -0.0065
     12 N2          1.3968    3.5242    0.0076 N.4       1 <0>        -0.6373
     13 H1         -0.5459    1.8868   -0.8726 H         1 <0>         0.0852
     14 H2         -0.5289    1.8773    0.9072 H         1 <0>         0.0859
     15 H3          0.5123   -0.3556   -0.8948 H         1 <0>         0.0925
     16 H4          0.5293   -0.3651    0.8851 H         1 <0>         0.0797
     17 H5         -2.1495    0.9555   -1.3693 H         1 <0>         0.0797
     18 H6         -1.7125   -0.2157    2.0277 H         1 <0>         0.3559
     19 H7          1.9439    1.6943    0.8826 H         1 <0>         0.1351
     20 H8          1.9269    1.7038   -0.8972 H         1 <0>         0.1368
     21 H9          0.9088    3.8584   -0.8098 H         1 <0>         0.4339
     22 H10         0.9245    3.8496    0.8378 H         1 <0>         0.4335
     23 H11         2.3434    3.8734    0.0005 H         1 <0>         0.4354
     24 H12        -2.2399    1.0378    1.0704 H         1 <0>         0.3135
@<TRIPOS>BOND
     1    1    2 1
     2    1   11 1
     3    1   13 1
     4    1   14 1
     5    2    3 1
     6    2   15 1
     7    2   16 1
     8    3    4 1
     9    3    7 1
    10    3   10 1
    11    4    5 1
    12    4    6 1
    13    4   17 1
    14    7    8 2
    15    7    9 1
    16   10   18 1
    17   10   24 1
    18   11   12 1
    19   11   19 1
    20   11   20 1
    21   12   21 1
    22   12   22 1
    23   12   23 1
@<TRIPOS>MOLECULE
ZINC01530886
   69    74     0     0     0
SMALL
USER_CHARGES

@<TRIPOS>ATOM
      1 C1          0.8671    1.5147   -0.8610 C.3       1 <0>        -0.1543
      2 C2          0.6450    0.0015   -0.8215 C.3       1 <0>        -0.1168
      3 C3          1.1107   -0.6170   -2.1411 C.3       1 <0>        -0.0598
      4 C4          0.8919   -2.1076   -2.1021 C.2       1 <0>         0.3306
      5 N1          1.7590   -2.9772   -1.6704 N.2       1 <0>        -0.4921
      6 C5          1.2430   -4.2276   -1.7744 C.ar      1 <0>         0.1019
      7 C6          1.7352   -5.5000   -1.4624 C.ar      1 <0>        -0.0150
      8 C7          0.9663   -6.6028   -1.6841 C.ar      1 <0>        -0.1017
      9 C8         -0.3199   -6.4765   -2.2244 C.ar      1 <0>        -0.1051
     10 C9         -0.8250   -5.2178   -2.5404 C.ar      1 <0>        -0.0358
     11 C10        -0.0479   -4.0934   -2.3167 C.ar      1 <0>         0.0437
     12 N2         -0.2420   -2.7389   -2.5073 N.pl3     1 <0>        -0.4663
     13 C11        -1.4448   -2.1016   -3.0490 C.3       1 <0>         0.1517
     14 C12        -1.3258   -1.9959   -4.5475 C.ar      1 <0>        -0.1396
     15 C13        -0.7488   -0.8741   -5.1154 C.ar      1 <0>        -0.1110
     16 C14        -0.6370   -0.7717   -6.4869 C.ar      1 <0>        -0.1121
     17 C15        -1.1068   -1.8020   -7.3009 C.ar      1 <0>         0.0196
     18 C16        -1.6871   -2.9305   -6.7225 C.ar      1 <0>        -0.0192
     19 C17        -1.7889   -3.0236   -5.3496 C.ar      1 <0>        -0.1121
     20 C18        -0.9903   -1.6979   -8.7742 C.ar      1 <0>        -0.0427
     21 C19         0.2575   -1.5306   -9.3680 C.ar      1 <0>        -0.1228
     22 C20         0.3619   -1.4345  -10.7410 C.ar      1 <0>        -0.1274
     23 C21        -0.7694   -1.5033  -11.5381 C.ar      1 <0>        -0.1308
     24 C22        -2.0148   -1.6684  -10.9700 C.ar      1 <0>        -0.0866
     25 C23        -2.1401   -1.7734   -9.5828 C.ar      1 <0>        -0.1205
     26 C24        -3.4669   -1.9560   -8.9699 C.2       1 <0>         0.5167
     27 O1         -4.4464   -2.1471   -9.6773 O.co2     1 <0>        -0.6806
     28 O2         -3.5893   -1.9165   -7.7534 O.co2     1 <0>        -0.6712
     29 C25        -1.1424   -7.6815   -2.4598 C.cat     1 <0>         0.4619
     30 N3         -0.6817   -8.8439   -2.8541 N.pl3     1 <0>        -0.4949
     31 C26        -1.7055   -9.7243   -2.9693 C.ar      1 <0>         0.0520
     32 C27        -1.7782  -11.0697   -3.3451 C.ar      1 <0>        -0.0785
     33 C28        -2.9866  -11.7062   -3.3662 C.ar      1 <0>        -0.0821
     34 C29        -4.1483  -11.0317   -3.0178 C.ar      1 <0>        -0.0706
     35 C30        -4.1012   -9.7052   -2.6440 C.ar      1 <0>        -0.0876
     36 C31        -2.8828   -9.0410   -2.6163 C.ar      1 <0>         0.0794
     37 N4         -2.4995   -7.7537   -2.2933 N.pl3     1 <0>        -0.4316
     38 C32        -3.3809   -6.6677   -1.8572 C.3       1 <0>         0.0561
     39 C33         3.1174   -5.6507   -0.8811 C.3       1 <0>        -0.1156
     40 H1          1.9273    1.7227   -1.0056 H         1 <0>         0.0607
     41 H2          0.2970    1.9442   -1.6848 H         1 <0>         0.0597
     42 H3          0.5353    1.9554    0.0791 H         1 <0>         0.0614
     43 H4          1.2151   -0.4280    0.0023 H         1 <0>         0.0727
     44 H5         -0.4152   -0.2065   -0.6769 H         1 <0>         0.0627
     45 H6          0.5406   -0.1875   -2.9649 H         1 <0>         0.0961
     46 H7          2.1709   -0.4091   -2.2856 H         1 <0>         0.1088
     47 H8          1.3517   -7.5821   -1.4417 H         1 <0>         0.1367
     48 H9         -1.8163   -5.1191   -2.9577 H         1 <0>         0.1352
     49 H10        -2.3192   -2.7009   -2.7953 H         1 <0>         0.0980
     50 H11        -1.5514   -1.1045   -2.6218 H         1 <0>         0.1081
     51 H12        -0.3853   -0.0769   -4.4840 H         1 <0>         0.1154
     52 H13        -0.1870    0.1049   -6.9292 H         1 <0>         0.1197
     53 H14        -2.0530   -3.7314   -7.3478 H         1 <0>         0.1141
     54 H15        -2.2348   -3.8987   -4.9003 H         1 <0>         0.1020
     55 H16         1.1443   -1.4755   -8.7541 H         1 <0>         0.1155
     56 H17         1.3321   -1.3043  -11.1972 H         1 <0>         0.1170
     57 H18        -0.6751   -1.4269  -12.6113 H         1 <0>         0.1176
     58 H19        -2.8923   -1.7209  -11.5974 H         1 <0>         0.1292
     59 H20        -0.8805  -11.6042   -3.6185 H         1 <0>         0.1511
     60 H21        -3.0385  -12.7449   -3.6573 H         1 <0>         0.1542
     61 H22        -5.0960  -11.5493   -3.0400 H         1 <0>         0.1547
     62 H23        -5.0084   -9.1854   -2.3736 H         1 <0>         0.1505
     63 H24        -3.6630   -6.0610   -2.7176 H         1 <0>         0.1079
     64 H25        -4.2765   -7.0882   -1.3998 H         1 <0>         0.1168
     65 H26        -2.8590   -6.0461   -1.1297 H         1 <0>         0.1122
     66 H27         3.0611   -5.6054    0.2065 H         1 <0>         0.0797
     67 H28         3.5361   -6.6105   -1.1836 H         1 <0>         0.0715
     68 H29         3.7547   -4.8451   -1.2458 H         1 <0>         0.0823
     69 H30         0.2500   -9.0432   -3.0360 H         1 <0>         0.4596
@<TRIPOS>BOND
     1    1    2 1
     2    1   40 1
     3    1   41 1
     4    1   42 1
     5    2    3 1
     6    2   43 1
     7    2   44 1
     8    3    4 1
     9    3   45 1
    10    3   46 1
    11    4   12 1
    12    4    5 2
    13    5    6 1
    14    6   11 ar
    15    6    7 ar
    16    7    8 ar
    17    7   39 1
    18    8    9 ar
    19    8   47 1
    20    9   10 ar
    21    9   29 1
    22   10   11 ar
    23   10   48 1
    24   11   12 1
    25   12   13 1
    26   13   14 1
    27   13   49 1
    28   13   50 1
    29   14   19 ar
    30   14   15 ar
    31   15   16 ar
    32   15   51 1
    33   16   17 ar
    34   16   52 1
    35   17   18 ar
    36   17   20 1
    37   18   19 ar
    38   18   53 1
    39   19   54 1
    40   20   25 ar
    41   20   21 ar
    42   21   22 ar
    43   21   55 1
    44   22   23 ar
    45   22   56 1
    46   23   24 ar
    47   23   57 1
    48   24   25 ar
    49   24   58 1
    50   25   26 1
    51   26   27 2
    52   26   28 1
    53   29   37 1
    54   29   30 2
    55   30   31 1
    56   30   69 1
    57   31   36 ar
    58   31   32 ar
    59   32   33 ar
    60   32   59 1
    61   33   34 ar
    62   33   60 1
    63   34   35 ar
    64   34   61 1
    65   35   36 ar
    66   35   62 1
    67   36   37 1
    68   37   38 1
    69   38   63 1
    70   38   64 1
    71   38   65 1
    72   39   66 1
    73   39   67 1
    74   39   68 1
@<TRIPOS>MOLECULE
ZINC01530863
   42    43     0     0     0
SMALL
USER_CHARGES

@<TRIPOS>ATOM
      1 C1         -0.0187    1.5258    0.0104 C.3       1 <0>        -0.1804
      2 C2          0.0021   -0.0041    0.0020 C.3       1 <0>         0.1452
      3 H1          0.5293   -0.3651    0.8851 H         1 <0>         0.0981
      4 C3          0.7182   -0.4975   -1.2568 C.3       1 <0>        -0.1297
      5 C4          0.8493   -2.0210   -1.2049 C.3       1 <0>        -0.1535
      6 C5          1.5654   -2.5144   -2.4637 C.3       1 <0>        -0.0113
      7 N1          1.6912   -3.9772   -2.4140 N.4       1 <0>        -0.6390
      8 N2         -1.3723   -0.5112    0.0124 N.pl3     1 <0>        -0.7347
      9 C6         -2.0512   -0.6602    1.2209 C.ar      1 <0>         0.2394
     10 C7         -1.4350   -0.3264    2.4056 C.ar      1 <0>        -0.1718
     11 C8         -2.1023   -0.4708    3.6237 C.ar      1 <0>         0.2167
     12 C9         -3.3923   -0.9501    3.6661 C.ar      1 <0>        -0.2297
     13 C10        -4.0460   -1.2980    2.4739 C.ar      1 <0>         0.0003
     14 C11        -3.3767   -1.1489    1.2345 C.ar      1 <0>         0.0370
     15 N3         -3.9998   -1.4749    0.0988 N.ar      1 <0>        -0.4401
     16 C12        -5.2295   -1.9287    0.1012 C.ar      1 <0>         0.1900
     17 C13        -5.9473   -2.0938    1.2839 C.ar      1 <0>        -0.1545
     18 C14        -5.3651   -1.7916    2.4818 C.ar      1 <0>         0.0338
     19 O1         -1.4716   -0.1352    4.7796 O.3       1 <0>        -0.2955
     20 C15        -2.2070   -0.3054    5.9930 C.3       1 <0>         0.0152
     21 H2          1.0039    1.9031    0.0027 H         1 <0>         0.0818
     22 H3         -0.5459    1.8868   -0.8726 H         1 <0>         0.0670
     23 H4         -0.5289    1.8773    0.9072 H         1 <0>         0.0698
     24 H5          0.1430   -0.2121   -2.1375 H         1 <0>         0.0850
     25 H6          1.7103   -0.0491   -1.3098 H         1 <0>         0.1040
     26 H7          1.4245   -2.3064   -0.3242 H         1 <0>         0.0942
     27 H8         -0.1428   -2.4694   -1.1520 H         1 <0>         0.0812
     28 H9          0.9902   -2.2290   -3.3445 H         1 <0>         0.1348
     29 H10         2.5575   -2.0660   -2.5167 H         1 <0>         0.1395
     30 H11         2.2237   -4.2414   -1.5987 H         1 <0>         0.4377
     31 H12         0.7729   -4.3922   -2.3649 H         1 <0>         0.4332
     32 H13        -1.8100   -0.7432   -0.8215 H         1 <0>         0.3945
     33 H14        -0.4232    0.0512    2.3930 H         1 <0>         0.1608
     34 H15        -3.8994   -1.0583    4.6136 H         1 <0>         0.1631
     35 H16        -5.6987   -2.1809   -0.8382 H         1 <0>         0.2115
     36 H17        -6.9595   -2.4692    1.2542 H         1 <0>         0.1889
     37 H18        -5.9062   -1.9140    3.4084 H         1 <0>         0.1802
     38 H19        -3.1071    0.3085    5.9615 H         1 <0>         0.0704
     39 H20        -2.4857   -1.3532    6.1050 H         1 <0>         0.0694
     40 H21        -1.5892   -0.0014    6.8380 H         1 <0>         0.1198
     41 H22         2.1635   -4.3026   -3.2441 H         1 <0>         0.4436
     42 H23        -3.5327   -1.3734   -0.7452 H         1 <0>         0.4343
@<TRIPOS>BOND
     1    1    2 1
     2    1   21 1
     3    1   22 1
     4    1   23 1
     5    2    3 1
     6    2    4 1
     7    2    8 1
     8    4    5 1
     9    4   24 1
    10    4   25 1
    11    5    6 1
    12    5   26 1
    13    5   27 1
    14    6    7 1
    15    6   28 1
    16    6   29 1
    17    7   30 1
    18    7   31 1
    19    7   41 1
    20    8    9 1
    21    8   32 1
    22    9   14 ar
    23    9   10 ar
    24   10   11 ar
    25   10   33 1
    26   11   12 ar
    27   11   19 1
    28   12   13 ar
    29   12   34 1
    30   13   18 ar
    31   13   14 ar
    32   14   15 ar
    33   15   16 ar
    34   15   42 1
    35   16   17 ar
    36   16   35 1
    37   17   18 ar
    38   17   36 1
    39   18   37 1
    40   19   20 1
    41   20   38 1
    42   20   39 1
    43   20   40 1
@<TRIPOS>MOLECULE
ZINC01530862
   42    43     0     0     0
SMALL
USER_CHARGES

@<TRIPOS>ATOM
      1 C1         -0.0187    1.5258    0.0104 C.3       1 <0>        -0.1803
      2 C2          0.0021   -0.0041    0.0020 C.3       1 <0>         0.1451
      3 H1          0.5293   -0.3651    0.8851 H         1 <0>         0.0981
      4 C3         -1.4333   -0.5336    0.0129 C.3       1 <0>        -0.1297
      5 C4         -1.4133   -2.0590    0.1302 C.3       1 <0>        -0.1536
      6 C5         -2.8486   -2.5886    0.1411 C.3       1 <0>        -0.0113
      7 N1         -2.8294   -4.0531    0.2538 N.4       1 <0>        -0.6390
      8 N2          0.6878   -0.4765   -1.2033 N.pl3     1 <0>        -0.7346
      9 C6          2.0771   -0.5908   -1.2153 C.ar      1 <0>         0.2396
     10 C7          2.8072   -0.2658   -0.0945 C.ar      1 <0>        -0.1720
     11 C8          4.1993   -0.3748   -0.0920 C.ar      1 <0>         0.2167
     12 C9          4.8724   -0.8104   -1.2113 C.ar      1 <0>        -0.2298
     13 C10         4.1542   -1.1492   -2.3685 C.ar      1 <0>         0.0003
     14 C11         2.7416   -1.0461   -2.3760 C.ar      1 <0>         0.0369
     15 N3          2.0568   -1.3732   -3.4752 N.ar      1 <0>        -0.4402
     16 C12         2.6642   -1.7970   -4.5567 C.ar      1 <0>         0.1900
     17 C13         4.0501   -1.9275   -4.6153 C.ar      1 <0>        -0.1546
     18 C14         4.8116   -1.5977   -3.5306 C.ar      1 <0>         0.0340
     19 O1          4.8972   -0.0470    1.0269 O.3       1 <0>        -0.2955
     20 C15         6.3188   -0.1797    0.9670 C.3       1 <0>         0.0152
     21 H2          1.0039    1.9031    0.0027 H         1 <0>         0.0698
     22 H3         -0.5459    1.8868   -0.8726 H         1 <0>         0.0670
     23 H4         -0.5289    1.8773    0.9072 H         1 <0>         0.0818
     24 H5         -1.9701   -0.1109    0.8621 H         1 <0>         0.1040
     25 H6         -1.9334   -0.2470   -0.9122 H         1 <0>         0.0850
     26 H7         -0.8764   -2.4817   -0.7190 H         1 <0>         0.0812
     27 H8         -0.9132   -2.3457    1.0553 H         1 <0>         0.0941
     28 H9         -3.3855   -2.1659    0.9903 H         1 <0>         0.1395
     29 H10        -3.3487   -2.3019   -0.7840 H         1 <0>         0.1348
     30 H11        -2.3325   -4.4444   -0.5324 H         1 <0>         0.4333
     31 H12        -2.3665   -4.3185    1.1101 H         1 <0>         0.4377
     32 H13         0.1751   -0.7099   -1.9930 H         1 <0>         0.3945
     33 H14         2.2973    0.0778    0.7933 H         1 <0>         0.1607
     34 H15         5.9494   -0.8908   -1.1990 H         1 <0>         0.1631
     35 H16         2.0749   -2.0519   -5.4251 H         1 <0>         0.2116
     36 H17         4.5223   -2.2801   -5.5203 H         1 <0>         0.1889
     37 H18         5.8871   -1.6920   -3.5583 H         1 <0>         0.1802
     38 H19         6.5782   -1.2165    0.7532 H         1 <0>         0.0694
     39 H20         6.7107    0.4629    0.1786 H         1 <0>         0.0704
     40 H21         6.7517    0.1134    1.9235 H         1 <0>         0.1198
     41 H22        -3.7760   -4.4024    0.2609 H         1 <0>         0.4436
     42 H23         1.0899   -1.2958   -3.4730 H         1 <0>         0.4343
@<TRIPOS>BOND
     1    1    2 1
     2    1   21 1
     3    1   22 1
     4    1   23 1
     5    2    3 1
     6    2    4 1
     7    2    8 1
     8    4    5 1
     9    4   24 1
    10    4   25 1
    11    5    6 1
    12    5   26 1
    13    5   27 1
    14    6    7 1
    15    6   28 1
    16    6   29 1
    17    7   30 1
    18    7   31 1
    19    7   41 1
    20    8    9 1
    21    8   32 1
    22    9   14 ar
    23    9   10 ar
    24   10   11 ar
    25   10   33 1
    26   11   12 ar
    27   11   19 1
    28   12   13 ar
    29   12   34 1
    30   13   18 ar
    31   13   14 ar
    32   14   15 ar
    33   15   16 ar
    34   15   42 1
    35   16   17 ar
    36   16   35 1
    37   17   18 ar
    38   17   36 1
    39   18   37 1
    40   19   20 1
    41   20   38 1
    42   20   39 1
    43   20   40 1
@<TRIPOS>MOLECULE
ZINC01530804
   43    45     0     0     0
SMALL
USER_CHARGES

@<TRIPOS>ATOM
      1 C1         -0.1414    1.1782    1.1025 C.3       1 <0>        -0.1689
      2 C2         -0.0047   -0.3406    0.9788 C.3       1 <0>         0.2400
      3 O1          0.4336   -0.6809   -0.3520 O.3       1 <0>        -0.3516
      4 C3          1.8586   -0.8253   -0.2194 C.3       1 <0>         0.0156
      5 H1          2.3279    0.1582   -0.1959 H         1 <0>         0.1022
      6 C4          2.4671   -1.6561   -1.3282 C.3       1 <0>         0.0660
      7 O2          1.9135   -2.9701   -1.3154 O.3       1 <0>        -0.3195
      8 C5          2.1315   -3.6952   -0.1268 C.3       1 <0>         0.2579
      9 C6          1.5886   -2.9749    1.1170 C.3       1 <0>         0.0224
     10 H2          0.5124   -3.1112    1.2238 H         1 <0>         0.1406
     11 C7          1.9968   -1.5000    1.1552 C.3       1 <0>         0.0483
     12 H3          2.9929   -1.3657    1.5768 H         1 <0>         0.1355
     13 O3          0.9684   -0.8158    1.9209 O.3       1 <0>        -0.3615
     14 O4          2.3254   -3.6306    2.1835 O.3       1 <0>        -0.3573
     15 C8          3.5307   -4.1478    1.6005 C.3       1 <0>         0.2406
     16 O5          3.5253   -3.8561    0.1888 O.3       1 <0>        -0.3608
     17 C9          4.7443   -3.4871    2.2574 C.3       1 <0>        -0.1549
     18 C10         3.5958   -5.6617    1.8124 C.3       1 <0>        -0.1875
     19 C11         1.4685   -5.0698   -0.2356 C.3       1 <0>         0.0540
     20 O6          2.1389   -5.8445   -1.2317 O.3       1 <0>        -0.7190
     21 S1          1.5597   -7.2386   -1.4254 S.o2      1 <0>         2.7922
     22 O7          2.4548   -7.9350   -2.2815 O.2       1 <0>        -0.9521
     23 O8          1.2135   -7.7177   -0.1332 O.2       1 <0>        -0.9902
     24 N1          0.1411   -7.0674   -2.2625 N.pl3     1 <0>        -1.2682
     25 C12        -1.3558   -1.0027    1.2569 C.3       1 <0>        -0.1570
     26 H4          0.8207    1.6475    0.8968 H         1 <0>         0.0640
     27 H5         -0.8808    1.5361    0.3860 H         1 <0>         0.0795
     28 H6         -0.4614    1.4331    2.1128 H         1 <0>         0.0783
     29 H7          2.2585   -1.1852   -2.2889 H         1 <0>         0.1264
     30 H8          3.5458   -1.7168   -1.1842 H         1 <0>         0.0924
     31 H9          4.7535   -3.7210    3.3219 H         1 <0>         0.0862
     32 H10         5.6571   -3.8626    1.7950 H         1 <0>         0.0829
     33 H11         4.6869   -2.4069    2.1231 H         1 <0>         0.0666
     34 H12         2.5933   -6.0827    1.7363 H         1 <0>         0.0754
     35 H13         4.2360   -6.1079    1.0514 H         1 <0>         0.0857
     36 H14         4.0046   -5.8730    2.8005 H         1 <0>         0.0871
     37 H15         1.5314   -5.5806    0.7253 H         1 <0>         0.1339
     38 H16         0.4218   -4.9473   -0.5141 H         1 <0>         0.1071
     39 H17        -0.1624   -6.1849   -2.5271 H         1 <0>         0.4163
     40 H18        -2.0938   -0.6361    0.5434 H         1 <0>         0.0797
     41 H19        -1.2583   -2.0836    1.1559 H         1 <0>         0.0641
     42 H20        -1.6777   -0.7600    2.2696 H         1 <0>         0.0821
     43 H21        -0.3863   -7.8495   -2.4881 H         1 <0>         0.4258
@<TRIPOS>BOND
     1    1    2 1
     2    1   26 1
     3    1   27 1
     4    1   28 1
     5    2   13 1
     6    2    3 1
     7    2   25 1
     8    3    4 1
     9    4    5 1
    10    4   11 1
    11    4    6 1
    12    6    7 1
    13    6   29 1
    14    6   30 1
    15    7    8 1
    16    8   16 1
    17    8    9 1
    18    8   19 1
    19    9   10 1
    20    9   11 1
    21    9   14 1
    22   11   12 1
    23   11   13 1
    24   14   15 1
    25   15   16 1
    26   15   17 1
    27   15   18 1
    28   17   31 1
    29   17   32 1
    30   17   33 1
    31   18   34 1
    32   18   35 1
    33   18   36 1
    34   19   20 1
    35   19   37 1
    36   19   38 1
    37   20   21 1
    38   21   22 2
    39   21   23 2
    40   21   24 1
    41   24   39 1
    42   24   43 1
    43   25   40 1
    44   25   41 1
    45   25   42 1
@<TRIPOS>MOLECULE
ZINC01530752
   57    58     0     0     0
SMALL
USER_CHARGES

@<TRIPOS>ATOM
      1 C1         -1.3393   -0.9465    0.0937 C.3       1 <0>        -0.1940
      2 C2         -0.0615   -0.1096    0.0057 C.3       1 <0>         0.0454
      3 N1          0.7423   -0.5619   -1.1377 N.3       1 <0>        -0.5360
      4 C3          1.0055   -2.0050   -1.0581 C.3       1 <0>         0.0448
      5 C4          1.8971   -2.2949    0.1510 C.3       1 <0>        -0.1497
      6 C5          0.0922   -0.2147   -2.4084 C.3       1 <0>         0.1566
      7 C6          0.2750    1.2211   -2.6767 C.1       1 <0>        -0.1195
      8 C7          0.4208    2.3662   -2.8907 C.1       1 <0>        -0.1918
      9 C8          0.6035    3.8019   -3.1591 C.3       1 <0>         0.1841
     10 O1         -0.0288    4.1398   -4.3952 O.3       1 <0>        -0.3348
     11 C9          0.0461    5.4212   -4.7878 C.2       1 <0>         0.4444
     12 O2          0.6293    6.2292   -4.1046 O.2       1 <0>        -0.4887
     13 C10        -0.5971    5.8519   -6.0808 C.3       1 <0>         0.2057
     14 C11         0.3520    5.5971   -7.2233 C.ar      1 <0>        -0.0920
     15 C12         1.2505    6.5752   -7.6067 C.ar      1 <0>        -0.0986
     16 C13         2.1211    6.3415   -8.6547 C.ar      1 <0>        -0.1235
     17 C14         2.0935    5.1295   -9.3191 C.ar      1 <0>        -0.1061
     18 C15         1.1956    4.1511   -8.9351 C.ar      1 <0>        -0.1253
     19 C16         0.3279    4.3833   -7.8843 C.ar      1 <0>        -0.0776
     20 C17        -0.9260    7.3447   -6.0142 C.3       1 <0>        -0.0995
     21 C18        -1.5790    7.7820   -7.3269 C.3       1 <0>        -0.1096
     22 C19        -1.9079    9.2748   -7.2604 C.3       1 <0>        -0.1192
     23 C20        -2.8715    9.5335   -6.1004 C.3       1 <0>        -0.1218
     24 C21        -2.2185    9.0961   -4.7877 C.3       1 <0>        -0.1141
     25 C22        -1.8896    7.6034   -4.8543 C.3       1 <0>        -0.1262
     26 O3         -1.7997    5.1079   -6.2856 O.3       1 <0>        -0.5275
     27 H1         -1.8650   -0.9086   -0.8604 H         1 <0>         0.0562
     28 H2         -1.0816   -1.9799    0.3257 H         1 <0>         0.0612
     29 H3         -1.9818   -0.5474    0.8786 H         1 <0>         0.0647
     30 H4         -0.3232    0.9402   -0.1267 H         1 <0>         0.0756
     31 H5          0.5140   -0.2276    0.9238 H         1 <0>         0.0815
     32 H6          0.0625   -2.5410   -0.9510 H         1 <0>         0.0441
     33 H7          1.5087   -2.3332   -1.9676 H         1 <0>         0.0758
     34 H8          1.3939   -1.9667    1.0605 H         1 <0>         0.0557
     35 H9          2.0924   -3.3656    0.2100 H         1 <0>         0.0609
     36 H10         2.8401   -1.7589    0.0439 H         1 <0>         0.0634
     37 H11         0.5392   -0.7949   -3.2156 H         1 <0>         0.1003
     38 H12        -0.9724   -0.4399   -2.3454 H         1 <0>         0.0714
     39 H13         0.1566    4.3822   -2.3518 H         1 <0>         0.0939
     40 H14         1.6681    4.0271   -3.2221 H         1 <0>         0.0922
     41 H15         1.2721    7.5220   -7.0877 H         1 <0>         0.1286
     42 H16         2.8226    7.1058   -8.9547 H         1 <0>         0.1274
     43 H17         2.7732    4.9472  -10.1383 H         1 <0>         0.1253
     44 H18         1.1737    3.2044   -9.4543 H         1 <0>         0.1263
     45 H19        -0.3711    3.6175   -7.5819 H         1 <0>         0.1332
     46 H20        -0.0086    7.9123   -5.8580 H         1 <0>         0.0956
     47 H21        -0.8926    7.5977   -8.1533 H         1 <0>         0.0701
     48 H22        -2.4964    7.2145   -7.4831 H         1 <0>         0.0723
     49 H23        -0.9906    9.8424   -7.1042 H         1 <0>         0.0621
     50 H24        -2.3732    9.5864   -8.1956 H         1 <0>         0.0653
     51 H25        -3.1058   10.5969   -6.0530 H         1 <0>         0.0629
     52 H26        -3.7889    8.9659   -6.2566 H         1 <0>         0.0627
     53 H27        -1.3011    9.6637   -4.6315 H         1 <0>         0.0647
     54 H28        -2.9049    9.2804   -3.9613 H         1 <0>         0.0647
     55 H29        -2.8069    7.0358   -5.0105 H         1 <0>         0.0642
     56 H30        -1.4243    7.2918   -3.9191 H         1 <0>         0.0681
     57 H31        -2.4580    5.2241   -5.5868 H         1 <0>         0.3845
@<TRIPOS>BOND
     1    1    2 1
     2    1   27 1
     3    1   28 1
     4    1   29 1
     5    2    3 1
     6    2   30 1
     7    2   31 1
     8    3    4 1
     9    3    6 1
    10    4    5 1
    11    4   32 1
    12    4   33 1
    13    5   34 1
    14    5   35 1
    15    5   36 1
    16    6    7 1
    17    6   37 1
    18    6   38 1
    19    7    8 3
    20    8    9 1
    21    9   10 1
    22    9   39 1
    23    9   40 1
    24   10   11 1
    25   11   12 2
    26   11   13 1
    27   13   14 1
    28   13   20 1
    29   13   26 1
    30   14   19 ar
    31   14   15 ar
    32   15   16 ar
    33   15   41 1
    34   16   17 ar
    35   16   42 1
    36   17   18 ar
    37   17   43 1
    38   18   19 ar
    39   18   44 1
    40   19   45 1
    41   20   25 1
    42   20   21 1
    43   20   46 1
    44   21   22 1
    45   21   47 1
    46   21   48 1
    47   22   23 1
    48   22   49 1
    49   22   50 1
    50   23   24 1
    51   23   51 1
    52   23   52 1
    53   24   25 1
    54   24   53 1
    55   24   54 1
    56   25   55 1
    57   25   56 1
    58   26   57 1
@<TRIPOS>MOLECULE
ZINC01530751
   57    58     0     0     0
SMALL
USER_CHARGES

@<TRIPOS>ATOM
      1 C1         -1.3393   -0.9465    0.0937 C.3       1 <0>        -0.1938
      2 C2         -0.0615   -0.1096    0.0057 C.3       1 <0>         0.0454
      3 N1          0.7423   -0.5619   -1.1377 N.3       1 <0>        -0.5361
      4 C3          1.0055   -2.0050   -1.0581 C.3       1 <0>         0.0450
      5 C4          1.8971   -2.2949    0.1510 C.3       1 <0>        -0.1498
      6 C5          0.0922   -0.2147   -2.4084 C.3       1 <0>         0.1567
      7 C6          0.2750    1.2211   -2.6767 C.1       1 <0>        -0.1196
      8 C7          0.4208    2.3662   -2.8907 C.1       1 <0>        -0.1918
      9 C8          0.6035    3.8019   -3.1591 C.3       1 <0>         0.1841
     10 O1         -0.0288    4.1398   -4.3952 O.3       1 <0>        -0.3348
     11 C9          0.0461    5.4212   -4.7878 C.2       1 <0>         0.4444
     12 O2          0.6293    6.2292   -4.1046 O.2       1 <0>        -0.4887
     13 C10        -0.5971    5.8519   -6.0808 C.3       1 <0>         0.2057
     14 C11        -2.0520    6.1618   -5.8393 C.ar      1 <0>        -0.0924
     15 C12        -2.4377    7.4438   -5.4950 C.ar      1 <0>        -0.0985
     16 C13        -3.7722    7.7281   -5.2735 C.ar      1 <0>        -0.1236
     17 C14        -4.7211    6.7304   -5.3966 C.ar      1 <0>        -0.1058
     18 C15        -4.3355    5.4486   -5.7417 C.ar      1 <0>        -0.1251
     19 C16        -3.0014    5.1653   -5.9675 C.ar      1 <0>        -0.0771
     20 C17         0.1094    7.1015   -6.6103 C.3       1 <0>        -0.0996
     21 C18        -0.5436    7.5388   -7.9230 C.3       1 <0>        -0.1098
     22 C19         0.1629    8.7884   -8.4526 C.3       1 <0>        -0.1192
     23 C20         1.6400    8.4738   -8.6978 C.3       1 <0>        -0.1218
     24 C21         2.2930    8.0364   -7.3851 C.3       1 <0>        -0.1141
     25 C22         1.5865    6.7869   -6.8555 C.3       1 <0>        -0.1261
     26 O3         -0.4873    4.7996   -7.0412 O.3       1 <0>        -0.5275
     27 H1         -1.8650   -0.9086   -0.8604 H         1 <0>         0.0562
     28 H2         -1.0816   -1.9799    0.3257 H         1 <0>         0.0612
     29 H3         -1.9818   -0.5474    0.8786 H         1 <0>         0.0646
     30 H4         -0.3232    0.9402   -0.1267 H         1 <0>         0.0755
     31 H5          0.5140   -0.2276    0.9238 H         1 <0>         0.0815
     32 H6          0.0625   -2.5410   -0.9510 H         1 <0>         0.0441
     33 H7          1.5087   -2.3332   -1.9676 H         1 <0>         0.0758
     34 H8          1.3939   -1.9667    1.0605 H         1 <0>         0.0556
     35 H9          2.0924   -3.3656    0.2100 H         1 <0>         0.0609
     36 H10         2.8401   -1.7589    0.0439 H         1 <0>         0.0634
     37 H11         0.5392   -0.7949   -3.2156 H         1 <0>         0.1002
     38 H12        -0.9724   -0.4399   -2.3454 H         1 <0>         0.0714
     39 H13         0.1566    4.3822   -2.3518 H         1 <0>         0.0936
     40 H14         1.6681    4.0271   -3.2221 H         1 <0>         0.0926
     41 H15        -1.6964    8.2233   -5.3988 H         1 <0>         0.1285
     42 H16        -4.0735    8.7296   -5.0039 H         1 <0>         0.1274
     43 H17        -5.7637    6.9523   -5.2228 H         1 <0>         0.1253
     44 H18        -5.0768    4.6690   -5.8376 H         1 <0>         0.1263
     45 H19        -2.7006    4.1647   -6.2407 H         1 <0>         0.1330
     46 H20         0.0256    7.9042   -5.8777 H         1 <0>         0.0957
     47 H21        -0.4599    6.7361   -8.6556 H         1 <0>         0.0723
     48 H22        -1.5959    7.7630   -7.7484 H         1 <0>         0.0703
     49 H23        -0.3024    9.1000   -9.3878 H         1 <0>         0.0653
     50 H24         0.0791    9.5911   -7.7200 H         1 <0>         0.0621
     51 H25         1.7237    7.6710   -9.4304 H         1 <0>         0.0626
     52 H26         2.1433    9.3640   -9.0751 H         1 <0>         0.0629
     53 H27         3.3453    7.8123   -7.5598 H         1 <0>         0.0646
     54 H28         2.2092    8.8391   -6.6525 H         1 <0>         0.0648
     55 H29         2.0517    6.4753   -5.9204 H         1 <0>         0.0680
     56 H30         1.6703    5.9842   -7.5882 H         1 <0>         0.0641
     57 H31         0.4235    4.5473   -7.2458 H         1 <0>         0.3843
@<TRIPOS>BOND
     1    1    2 1
     2    1   27 1
     3    1   28 1
     4    1   29 1
     5    2    3 1
     6    2   30 1
     7    2   31 1
     8    3    4 1
     9    3    6 1
    10    4    5 1
    11    4   32 1
    12    4   33 1
    13    5   34 1
    14    5   35 1
    15    5   36 1
    16    6    7 1
    17    6   37 1
    18    6   38 1
    19    7    8 3
    20    8    9 1
    21    9   10 1
    22    9   39 1
    23    9   40 1
    24   10   11 1
    25   11   12 2
    26   11   13 1
    27   13   14 1
    28   13   20 1
    29   13   26 1
    30   14   19 ar
    31   14   15 ar
    32   15   16 ar
    33   15   41 1
    34   16   17 ar
    35   16   42 1
    36   17   18 ar
    37   17   43 1
    38   18   19 ar
    39   18   44 1
    40   19   45 1
    41   20   25 1
    42   20   21 1
    43   20   46 1
    44   21   22 1
    45   21   47 1
    46   21   48 1
    47   22   23 1
    48   22   49 1
    49   22   50 1
    50   23   24 1
    51   23   51 1
    52   23   52 1
    53   24   25 1
    54   24   53 1
    55   24   54 1
    56   25   55 1
    57   25   56 1
    58   26   57 1
@<TRIPOS>MOLECULE
ZINC01530749
   61    63     0     0     0
SMALL
USER_CHARGES

@<TRIPOS>ATOM
      1 C1         -2.2767   -3.5956    5.1307 C.3       1 <0>        -0.1511
      2 C2         -1.6882   -4.7431    4.3073 C.3       1 <0>         0.0573
      3 O1         -1.3502   -4.2685    3.0025 O.3       1 <0>        -0.3513
      4 C3         -0.8182   -5.1579    2.1495 C.2       1 <0>         0.4280
      5 O2         -0.6452   -6.3015    2.4991 O.2       1 <0>        -0.4962
      6 C4         -0.4366   -4.7302    0.7558 C.3       1 <0>         0.1001
      7 H1          0.3105   -3.9383    0.8104 H         1 <0>         0.1168
      8 C5         -1.6763   -4.2121    0.0239 C.3       1 <0>        -0.0911
      9 C6         -1.2683   -3.6627   -1.3445 C.3       1 <0>        -0.0786
     10 C7         -2.4894   -3.1524   -2.0653 C.ar      1 <0>        -0.0739
     11 C8         -3.2192   -4.0019   -2.8756 C.ar      1 <0>        -0.1116
     12 C9         -4.3393   -3.5338   -3.5368 C.ar      1 <0>        -0.1193
     13 C10        -4.7298   -2.2162   -3.3874 C.ar      1 <0>        -0.1304
     14 C11        -4.0005   -1.3669   -2.5764 C.ar      1 <0>        -0.1235
     15 C12        -2.8829   -1.8361   -1.9118 C.ar      1 <0>        -0.1203
     16 N1          0.1188   -5.8778    0.0261 N.3       1 <0>        -0.6278
     17 C13         1.5530   -6.0336    0.3030 C.3       1 <0>         0.0662
     18 H2          2.0086   -5.0508    0.4241 H         1 <0>         0.0947
     19 C14         1.7394   -6.8438    1.5875 C.3       1 <0>        -0.1841
     20 C15         2.2110   -6.7543   -0.8453 C.2       1 <0>         0.5022
     21 O3          1.5502   -7.1037   -1.8004 O.2       1 <0>        -0.4402
     22 N2          3.5337   -7.0106   -0.8110 N.am      1 <0>        -0.6014
     23 C16         4.3810   -6.5033    0.2736 C.3       1 <0>         0.1509
     24 C17         5.6572   -5.9404   -0.2999 C.ar      1 <0>        -0.0993
     25 C18         6.4737   -5.1981    0.5426 C.ar      1 <0>        -0.1156
     26 C19         7.6590   -4.6658    0.0789 C.ar      1 <0>        -0.1332
     27 C20         8.0368   -4.8749   -1.2346 C.ar      1 <0>        -0.1211
     28 C21         7.2247   -5.6088   -2.0734 C.ar      1 <0>        -0.1239
     29 C22         6.0271   -6.1410   -1.6107 C.ar      1 <0>        -0.0487
     30 C23         5.1791   -6.9080   -2.5908 C.3       1 <0>        -0.0841
     31 C24         4.1849   -7.8160   -1.8574 C.3       1 <0>         0.0782
     32 H3          4.7133   -8.6538   -1.4025 H         1 <0>         0.0622
     33 C25         3.1491   -8.3295   -2.8241 C.2       1 <0>         0.5184
     34 O4          2.6903   -7.5884   -3.6765 O.co2     1 <0>        -0.6677
     35 O5          2.7700   -9.4862   -2.7537 O.co2     1 <0>        -0.7035
     36 H4         -1.5423   -2.7945    5.2144 H         1 <0>         0.0658
     37 H5         -3.1725   -3.2173    4.6383 H         1 <0>         0.0664
     38 H6         -2.5345   -3.9576    6.1260 H         1 <0>         0.0769
     39 H7         -0.7924   -5.1214    4.7997 H         1 <0>         0.0651
     40 H8         -2.4226   -5.5441    4.2237 H         1 <0>         0.0660
     41 H9         -2.3870   -5.0277   -0.1092 H         1 <0>         0.0716
     42 H10        -2.1395   -3.4187    0.6106 H         1 <0>         0.0772
     43 H11        -0.5576   -2.8470   -1.2114 H         1 <0>         0.0698
     44 H12        -0.8052   -4.4561   -1.9312 H         1 <0>         0.0995
     45 H13        -2.9141   -5.0314   -2.9923 H         1 <0>         0.1269
     46 H14        -4.9090   -4.1974   -4.1703 H         1 <0>         0.1196
     47 H15        -5.6045   -1.8503   -3.9045 H         1 <0>         0.1165
     48 H16        -4.3055   -0.3374   -2.4600 H         1 <0>         0.1171
     49 H17        -2.3153   -1.1735   -1.2753 H         1 <0>         0.1193
     50 H18         1.2838   -7.8266    1.4665 H         1 <0>         0.0673
     51 H19         2.8036   -6.9594    1.7930 H         1 <0>         0.0648
     52 H20         1.2635   -6.3225    2.4181 H         1 <0>         0.0713
     53 H21         3.8491   -5.7196    0.8130 H         1 <0>         0.0853
     54 H22         4.6191   -7.3169    0.9587 H         1 <0>         0.0719
     55 H23         6.1785   -5.0357    1.5687 H         1 <0>         0.1186
     56 H24         8.2893   -4.0886    0.7392 H         1 <0>         0.1177
     57 H25         8.9657   -4.4648   -1.6026 H         1 <0>         0.1175
     58 H26         7.5217   -5.7710   -3.0990 H         1 <0>         0.1203
     59 H27         4.6307   -6.2048   -3.2175 H         1 <0>         0.0940
     60 H28         5.8244   -7.5205   -3.2206 H         1 <0>         0.0737
     61 H29        -0.3857   -6.7238    0.2448 H         1 <0>         0.3632
@<TRIPOS>BOND
     1    1    2 1
     2    1   36 1
     3    1   37 1
     4    1   38 1
     5    2    3 1
     6    2   39 1
     7    2   40 1
     8    3    4 1
     9    4    5 2
    10    4    6 1
    11    6    7 1
    12    6    8 1
    13    6   16 1
    14    8    9 1
    15    8   41 1
    16    8   42 1
    17    9   10 1
    18    9   43 1
    19    9   44 1
    20   10   15 ar
    21   10   11 ar
    22   11   12 ar
    23   11   45 1
    24   12   13 ar
    25   12   46 1
    26   13   14 ar
    27   13   47 1
    28   14   15 ar
    29   14   48 1
    30   15   49 1
    31   16   17 1
    32   16   61 1
    33   17   18 1
    34   17   19 1
    35   17   20 1
    36   19   50 1
    37   19   51 1
    38   19   52 1
    39   20   21 2
    40   20   22 am
    41   22   31 1
    42   22   23 1
    43   23   24 1
    44   23   53 1
    45   23   54 1
    46   24   29 ar
    47   24   25 ar
    48   25   26 ar
    49   25   55 1
    50   26   27 ar
    51   26   56 1
    52   27   28 ar
    53   27   57 1
    54   28   29 ar
    55   28   58 1
    56   29   30 1
    57   30   31 1
    58   30   59 1
    59   30   60 1
    60   31   32 1
    61   31   33 1
    62   33   34 2
    63   33   35 1
@<TRIPOS>MOLECULE
ZINC01530736
   42    42     0     0     0
SMALL
USER_CHARGES

@<TRIPOS>ATOM
      1 C1          0.8006    0.1998    1.2498 C.3       1 <0>         0.1186
      2 N1          0.0401    0.0102    0.0121 N.pl3     1 <0>        -0.7891
      3 C2          0.6388   -0.5966   -1.0853 C.2       1 <0>         0.5254
      4 C3          0.6445   -1.9231   -1.1913 C.2       1 <0>        -0.2625
      5 N2         -0.0979   -2.7474   -0.2105 N.pl3     1 <0>         0.0690
      6 O1         -0.7880   -2.2149    0.6274 O.2       1 <0>        -0.1840
      7 O2         -0.0141   -3.9529   -0.2475 O.3       1 <0>        -0.2104
      8 N3          1.2316    0.1818   -2.0720 N.pl3     1 <0>        -0.7189
      9 C4          1.1284    1.6420   -2.0136 C.3       1 <0>         0.1396
     10 C5          1.7525    2.2481   -3.2722 C.3       1 <0>        -0.1143
     11 S1          1.6247    4.0561   -3.2000 S.3       1 <0>        -0.2142
     12 C6          2.3992    4.6128   -4.7430 C.3       1 <0>        -0.0105
     13 C7          2.3592    6.1178   -4.8107 C.2       1 <0>         0.0717
     14 C8          1.3122    6.7756   -5.3713 C.2       1 <0>        -0.2133
     15 S2          1.8337    8.4696   -5.1545 S.3       1 <0>         0.1482
     16 C9          3.3006    8.1634   -4.3881 C.2       1 <0>         0.0635
     17 N4          3.3366    6.8558   -4.3234 N.2       1 <0>        -0.5035
     18 C10         4.3221    9.1538   -3.8916 C.3       1 <0>         0.1398
     19 N5          5.2886    9.4381   -4.9608 N.3       1 <0>        -0.5433
     20 C11         6.1549   10.5684   -4.6005 C.3       1 <0>         0.0239
     21 C12         6.0847    8.2459   -5.2814 C.3       1 <0>         0.0232
     22 H1          1.0493   -0.7722    1.6760 H         1 <0>         0.0465
     23 H2          1.7182    0.7465    1.0323 H         1 <0>         0.0434
     24 H3          0.2004    0.7660    1.9620 H         1 <0>         0.0825
     25 H4         -0.8815    0.3082   -0.0413 H         1 <0>         0.4138
     26 H5          1.1907   -2.3984   -1.9926 H         1 <0>         0.1748
     27 H6          1.7138   -0.2416   -2.7994 H         1 <0>         0.4121
     28 H7          0.0788    1.9299   -1.9538 H         1 <0>         0.0819
     29 H8          1.6565    2.0087   -1.1335 H         1 <0>         0.0794
     30 H9          2.8021    1.9602   -3.3321 H         1 <0>         0.0907
     31 H10         1.2244    1.8814   -4.1524 H         1 <0>         0.0916
     32 H11         3.4352    4.2752   -4.7720 H         1 <0>         0.0990
     33 H12         1.8575    4.1964   -5.5923 H         1 <0>         0.0996
     34 H13         0.4131    6.3831   -5.8230 H         1 <0>         0.1988
     35 H14         3.8213   10.0769   -3.5997 H         1 <0>         0.1033
     36 H15         4.8447    8.7362   -3.0310 H         1 <0>         0.0714
     37 H16         6.7025   10.3302   -3.6886 H         1 <0>         0.0314
     38 H17         6.8607   10.7574   -5.4093 H         1 <0>         0.0755
     39 H18         5.5443   11.4562   -4.4362 H         1 <0>         0.0733
     40 H19         5.4231    7.4453   -5.6121 H         1 <0>         0.0706
     41 H20         6.7920    8.4842   -6.0758 H         1 <0>         0.0703
     42 H21         6.6298    7.9236   -4.3942 H         1 <0>         0.0314
@<TRIPOS>BOND
     1    1    2 1
     2    1   22 1
     3    1   23 1
     4    1   24 1
     5    2    3 1
     6    2   25 1
     7    3    4 2
     8    3    8 1
     9    4    5 1
    10    4   26 1
    11    5    6 2
    12    5    7 1
    13    8    9 1
    14    8   27 1
    15    9   10 1
    16    9   28 1
    17    9   29 1
    18   10   11 1
    19   10   30 1
    20   10   31 1
    21   11   12 1
    22   12   13 1
    23   12   32 1
    24   12   33 1
    25   13   17 1
    26   13   14 2
    27   14   15 1
    28   14   34 1
    29   15   16 1
    30   16   17 2
    31   16   18 1
    32   18   19 1
    33   18   35 1
    34   18   36 1
    35   19   20 1
    36   19   21 1
    37   20   37 1
    38   20   38 1
    39   20   39 1
    40   21   40 1
    41   21   41 1
    42   21   42 1
@<TRIPOS>MOLECULE
ZINC01530713
   43    44     0     0     0
SMALL
USER_CHARGES

@<TRIPOS>ATOM
      1 C1         -0.0187    1.5258    0.0104 C.3       1 <0>        -0.1547
      2 C2          0.0021   -0.0041    0.0020 C.3       1 <0>        -0.0824
      3 C3          0.7182   -0.4975   -1.2568 C.3       1 <0>        -0.1375
      4 C4          0.7421   -0.5109    1.2415 C.3       1 <0>         0.1063
      5 H1          1.7647   -0.1336    1.2338 H         1 <0>         0.1175
      6 C5          0.0367   -0.0249    2.4814 C.2       1 <0>         0.4312
      7 O1         -0.7063   -0.7640    3.0828 O.2       1 <0>        -0.5120
      8 O2          0.2338    1.2291    2.9177 O.3       1 <0>        -0.3401
      9 C6         -0.4671    1.6226    4.0993 C.3       1 <0>         0.0630
     10 C7         -0.1190    3.0731    4.4395 C.3       1 <0>         0.0757
     11 O3         -0.6046    3.9341    3.4076 O.3       1 <0>        -0.3876
     12 C8         -0.3303    5.3189    3.6290 C.3       1 <0>         0.2987
     13 N1         -0.8683    6.1072    2.5176 N.pl3     1 <0>        -0.4598
     14 C9         -1.5370    5.6202    1.4320 C.2       1 <0>         0.2296
     15 N2         -1.8711    6.5999    0.6439 N.2       1 <0>        -0.4230
     16 C10        -1.4387    7.7698    1.1743 C.2       1 <0>        -0.1411
     17 C11        -0.7976    7.4670    2.3809 C.2       1 <0>         0.3101
     18 N3         -0.2758    8.4529    3.1200 N.2       1 <0>        -0.5843
     19 C12        -0.3564    9.7068    2.7342 C.2       1 <0>         0.6583
     20 N4         -0.9706   10.0646    1.5712 N.am      1 <0>        -0.6569
     21 H2         -1.0128   10.9993    1.3155 H         1 <0>         0.4203
     22 C13        -1.5138    9.1228    0.7684 C.2       1 <0>         0.5956
     23 O4         -2.0669    9.4329   -0.2729 O.2       1 <0>        -0.5047
     24 N5          0.1933   10.6840    3.5255 N.pl3     1 <0>        -0.8177
     25 N6          0.7620   -1.9797    1.2335 N.3       1 <0>        -0.8116
     26 H3          1.0039    1.9031    0.0027 H         1 <0>         0.0611
     27 H4         -0.5459    1.8868   -0.8726 H         1 <0>         0.0640
     28 H5         -0.5289    1.8773    0.9072 H         1 <0>         0.0633
     29 H6         -1.0205   -0.3814    0.0098 H         1 <0>         0.0740
     30 H7          1.7408   -0.1202   -1.2645 H         1 <0>         0.0560
     31 H8          0.7330   -1.5874   -1.2628 H         1 <0>         0.0695
     32 H9          0.1910   -0.1364   -2.1398 H         1 <0>         0.0569
     33 H10        -1.5405    1.5364    3.9307 H         1 <0>         0.0804
     34 H11        -0.1762    0.9754    4.9268 H         1 <0>         0.0893
     35 H12        -0.5826    3.3451    5.3878 H         1 <0>         0.0827
     36 H13         0.9629    3.1777    4.5208 H         1 <0>         0.0725
     37 H14        -0.7982    5.6376    4.5605 H         1 <0>         0.0814
     38 H15         0.7473    5.4701    3.6935 H         1 <0>         0.0827
     39 H16        -1.7556    4.5777    1.2537 H         1 <0>         0.2228
     40 H17         0.6334   10.4449    4.3562 H         1 <0>         0.4294
     41 H18         0.1417   11.6138    3.2541 H         1 <0>         0.4182
     42 H19         1.3004   -2.3383    2.0078 H         1 <0>         0.3489
     43 H20        -0.1750   -2.3541    1.2404 H         1 <0>         0.3538
@<TRIPOS>BOND
     1    1    2 1
     2    1   26 1
     3    1   27 1
     4    1   28 1
     5    2    3 1
     6    2    4 1
     7    2   29 1
     8    3   30 1
     9    3   31 1
    10    3   32 1
    11    4    5 1
    12    4    6 1
    13    4   25 1
    14    6    7 2
    15    6    8 1
    16    8    9 1
    17    9   10 1
    18    9   33 1
    19    9   34 1
    20   10   11 1
    21   10   35 1
    22   10   36 1
    23   11   12 1
    24   12   13 1
    25   12   37 1
    26   12   38 1
    27   13   17 1
    28   13   14 1
    29   14   15 2
    30   14   39 1
    31   15   16 1
    32   16   22 1
    33   16   17 2
    34   17   18 1
    35   18   19 2
    36   19   20 1
    37   19   24 1
    38   20   21 1
    39   20   22 am
    40   22   23 2
    41   24   40 1
    42   24   41 1
    43   25   42 1
    44   25   43 1
@<TRIPOS>MOLECULE
ZINC01530571
   59    62     0     0     0
SMALL
USER_CHARGES

@<TRIPOS>ATOM
      1 C1         -0.0167    1.3818    0.0096 C.ar      1 <0>        -0.2969
      2 C2          1.1915    2.0609    0.0018 C.ar      1 <0>         0.1938
      3 N1          2.3197    1.3705   -0.0127 N.ar      1 <0>        -0.5732
      4 C3          2.3029    0.0457   -0.0197 C.ar      1 <0>         0.5658
      5 N2          1.1654   -0.6335   -0.0129 N.ar      1 <0>        -0.5730
      6 C4          0.0021   -0.0041    0.0020 C.ar      1 <0>         0.1940
      7 N3          3.5022   -0.6451   -0.0348 N.pl3     1 <0>        -0.5851
      8 C5          4.7864    0.0719   -0.0371 C.3       1 <0>         0.1324
      9 C6          5.6472   -0.4751   -1.1808 C.3       1 <0>         0.0415
     10 N4          5.7512   -1.9351   -1.0561 N.3       1 <0>        -0.5378
     11 C7          4.4367   -2.5765   -1.1923 C.3       1 <0>         0.0378
     12 C8          3.5262   -2.1156   -0.0430 C.3       1 <0>         0.1322
     13 C9          6.7063   -2.4799   -2.0301 C.3       1 <0>         0.0580
     14 C10         6.9763   -3.9518   -1.7112 C.3       1 <0>        -0.1114
     15 C11         7.9711   -4.5193   -2.7257 C.3       1 <0>        -0.1277
     16 C12         8.2411   -5.9911   -2.4068 C.3       1 <0>         0.0925
     17 N5          9.1937   -6.5345   -3.3782 N.am      1 <0>        -0.5656
     18 C13         8.7176   -7.0831   -4.5056 C.2       1 <0>         0.5235
     19 O1          7.5209   -7.1017   -4.6983 O.2       1 <0>        -0.4979
     20 C14         9.6414   -7.6762   -5.5375 C.3       1 <0>        -0.1320
     21 C15        10.9900   -6.9610   -5.4750 C.3       1 <0>        -0.0665
     22 C16        11.9819   -7.6151   -6.4466 C.3       1 <0>        -0.1128
     23 C17        12.3921   -6.5206   -7.4551 C.3       1 <0>        -0.1254
     24 C18        12.1282   -5.1922   -6.7029 C.3       1 <0>        -0.1237
     25 C19        10.8279   -5.4956   -5.9162 C.3       1 <0>        -0.1241
     26 C20        11.5352   -7.0178   -4.0487 C.3       1 <0>        -0.1310
     27 C21        10.5042   -6.4570   -3.1040 C.2       1 <0>         0.5230
     28 O2         10.8659   -5.9296   -2.0741 O.2       1 <0>        -0.4965
     29 H1         -0.9525    1.9208    0.0259 H         1 <0>         0.1437
     30 H2          1.2116    3.1407    0.0070 H         1 <0>         0.1666
     31 H3         -0.9219   -0.5632    0.0082 H         1 <0>         0.1667
     32 H4          4.6108    1.1370   -0.1881 H         1 <0>         0.1016
     33 H5          5.2961   -0.0869    0.9132 H         1 <0>         0.0738
     34 H6          5.1859   -0.2235   -2.1357 H         1 <0>         0.0373
     35 H7          6.6426   -0.0339   -1.1299 H         1 <0>         0.0892
     36 H8          3.9922   -2.2957   -2.1471 H         1 <0>         0.0376
     37 H9          4.5541   -3.6593   -1.1498 H         1 <0>         0.0919
     38 H10         3.9172   -2.4807    0.9068 H         1 <0>         0.0739
     39 H11         2.5171   -2.4975   -0.1978 H         1 <0>         0.1013
     40 H12         6.2894   -2.3962   -3.0337 H         1 <0>         0.0338
     41 H13         7.6396   -1.9194   -1.9765 H         1 <0>         0.0768
     42 H14         7.3933   -4.0355   -0.7076 H         1 <0>         0.0768
     43 H15         6.0430   -4.5123   -1.7648 H         1 <0>         0.0665
     44 H16         7.5542   -4.4355   -3.7293 H         1 <0>         0.0656
     45 H17         8.9044   -3.9587   -2.6720 H         1 <0>         0.0680
     46 H18         8.6581   -6.0748   -1.4031 H         1 <0>         0.0965
     47 H19         7.3078   -6.5516   -2.4604 H         1 <0>         0.0949
     48 H20         9.7822   -8.7375   -5.3331 H         1 <0>         0.1123
     49 H21         9.2080   -7.5500   -6.5297 H         1 <0>         0.1155
     50 H22        12.8577   -7.9706   -5.9039 H         1 <0>         0.0751
     51 H23        11.5029   -8.4436   -6.9683 H         1 <0>         0.0748
     52 H24        13.4482   -6.6121   -7.7087 H         1 <0>         0.0699
     53 H25        11.7768   -6.5793   -8.3530 H         1 <0>         0.0686
     54 H26        12.9479   -4.9651   -6.0212 H         1 <0>         0.0700
     55 H27        11.9720   -4.3745   -7.4065 H         1 <0>         0.0701
     56 H28         9.9566   -5.3855   -6.5618 H         1 <0>         0.0744
     57 H29        10.7458   -4.8422   -5.0477 H         1 <0>         0.0652
     58 H30        11.7534   -8.0522   -3.7832 H         1 <0>         0.1126
     59 H31        12.4471   -6.4242   -3.9835 H         1 <0>         0.1155
@<TRIPOS>BOND
     1    1    6 ar
     2    1    2 ar
     3    1   29 1
     4    2    3 ar
     5    2   30 1
     6    3    4 ar
     7    4    5 ar
     8    4    7 1
     9    5    6 ar
    10    6   31 1
    11    7   12 1
    12    7    8 1
    13    8    9 1
    14    8   32 1
    15    8   33 1
    16    9   10 1
    17    9   34 1
    18    9   35 1
    19   10   11 1
    20   10   13 1
    21   11   12 1
    22   11   36 1
    23   11   37 1
    24   12   38 1
    25   12   39 1
    26   13   14 1
    27   13   40 1
    28   13   41 1
    29   14   15 1
    30   14   42 1
    31   14   43 1
    32   15   16 1
    33   15   44 1
    34   15   45 1
    35   16   17 1
    36   16   46 1
    37   16   47 1
    38   17   27 am
    39   17   18 am
    40   18   19 2
    41   18   20 1
    42   20   21 1
    43   20   48 1
    44   20   49 1
    45   21   25 1
    46   21   22 1
    47   21   26 1
    48   22   23 1
    49   22   50 1
    50   22   51 1
    51   23   24 1
    52   23   52 1
    53   23   53 1
    54   24   25 1
    55   24   54 1
    56   24   55 1
    57   25   56 1
    58   25   57 1
    59   26   27 1
    60   26   58 1
    61   26   59 1
    62   27   28 2
@<TRIPOS>MOLECULE
ZINC06409735
   17    18     0     0     0
SMALL
USER_CHARGES

@<TRIPOS>ATOM
      1 C1         -0.0168    1.3885    0.0097 C.ar      1 <0>        -0.1546
      2 C2          1.1578    2.0863    0.0022 C.ar      1 <0>        -0.1065
      3 C3          2.3620    1.3588   -0.0132 C.ar      1 <0>        -0.0210
      4 C4          3.6088    2.0077   -0.0210 C.ar      1 <0>        -0.1791
      5 C5          4.7541    1.2695   -0.0355 C.ar      1 <0>         0.0217
      6 C6          4.7083   -0.1226   -0.0427 C.ar      1 <0>        -0.2818
      7 C7          3.5151   -0.7876   -0.0359 C.ar      1 <0>         0.3314
      8 C8          2.3089   -0.0569   -0.0203 C.ar      1 <0>         0.0561
      9 N1          1.1264   -0.6784   -0.0124 N.ar      1 <0>        -0.4133
     10 C9          0.0021   -0.0041    0.0020 C.ar      1 <0>         0.0509
     11 O1          3.4905   -2.1462   -0.0431 O.3       1 <0>        -0.6286
     12 I1          6.4969   -1.2133   -0.0651 I         1 <0>        -0.0772
     13 Cl1         3.6893    3.7418   -0.0128 Cl        1 <0>        -0.1083
     14 H1         -0.9589    1.9163    0.0260 H         1 <0>         0.1233
     15 H2          1.1619    3.1663    0.0076 H         1 <0>         0.1292
     16 H3          5.7107    1.7709   -0.0419 H         1 <0>         0.1131
     17 H4         -0.9340   -0.5426    0.0081 H         1 <0>         0.1447
@<TRIPOS>BOND
     1    1   10 ar
     2    1    2 ar
     3    1   14 1
     4    2    3 ar
     5    2   15 1
     6    3    8 ar
     7    3    4 ar
     8    4    5 ar
     9    4   13 1
    10    5    6 ar
    11    5   16 1
    12    6    7 ar
    13    6   12 1
    14    7    8 ar
    15    7   11 1
    16    8    9 ar
    17    9   10 ar
    18   10   17 1
@<TRIPOS>MOLECULE
ZINC14879992
   59    62     0     0     0
SMALL
USER_CHARGES

@<TRIPOS>ATOM
      1 C1         -0.1674    0.7769    1.2161 C.3       1 <0>         0.1192
      2 N1         -0.2515   -0.6719    1.0156 N.pl3     1 <0>        -0.6806
      3 C2         -0.3774   -1.5651    2.1700 C.3       1 <0>         0.1199
      4 C3         -0.2115   -1.2027   -0.2787 C.ar      1 <0>         0.1354
      5 C4          1.0088   -1.5508   -0.8493 C.ar      1 <0>        -0.1063
      6 C5          1.0593   -2.0729   -2.1261 C.ar      1 <0>        -0.1627
      7 C6         -0.1109   -2.2617   -2.8471 C.ar      1 <0>         0.1373
      8 C7         -1.3417   -1.9279   -2.2737 C.ar      1 <0>        -0.1429
      9 C8         -1.3867   -1.3859   -0.9873 C.ar      1 <0>        -0.0338
     10 C9         -2.7033   -0.9735   -0.3869 C.3       1 <0>        -0.0650
     11 C10        -3.8118   -1.9344   -0.8128 C.3       1 <0>         0.0152
     12 H1         -3.6306   -2.9137   -0.3699 H         1 <0>         0.0408
     13 C11        -5.1591   -1.3966   -0.3209 C.3       1 <0>        -0.0977
     14 C12        -6.2716   -2.2808   -0.8837 C.3       1 <0>        -0.0749
     15 H2         -6.0090   -3.3159   -0.6652 H         1 <0>         0.0956
     16 C13        -7.5911   -1.9893   -0.1968 C.3       1 <0>         0.0041
     17 H3         -7.4296   -1.9374    0.8799 H         1 <0>         0.1373
     18 C14        -8.1734   -0.6881   -0.6710 C.2       1 <0>         0.3735
     19 O1         -8.8359   -0.0060    0.0834 O.2       1 <0>        -0.5290
     20 C15        -7.9394   -0.2474   -2.0438 C.2       1 <0>        -0.5013
     21 C16        -7.0638   -0.9328   -2.8471 C.2       1 <0>         0.3204
     22 C17        -6.3450   -2.1371   -2.3868 C.3       1 <0>         0.1296
     23 C18        -4.9788   -2.1472   -3.0038 C.2       1 <0>         0.2945
     24 O2         -4.8955   -2.2373   -4.3462 O.3       1 <0>        -0.6010
     25 C19        -3.8451   -2.0638   -2.3124 C.2       1 <0>        -0.4906
     26 C20        -2.5996   -2.1298   -3.0200 C.2       1 <0>         0.4179
     27 O3         -2.5793   -2.3548   -4.2167 O.2       1 <0>        -0.4705
     28 O4         -7.0402   -3.2757   -2.8991 O.3       1 <0>        -0.5828
     29 O5         -6.8567   -0.4897   -4.0960 O.3       1 <0>        -0.5120
     30 C21        -8.6439    0.9344   -2.5660 C.2       1 <0>         0.5839
     31 O6         -8.5395    1.2352   -3.7399 O.2       1 <0>        -0.5541
     32 N2         -9.4048    1.6834   -1.7435 N.am      1 <0>        -0.8769
     33 N3         -8.5369   -3.0744   -0.4901 N.4       1 <0>        -0.3709
     34 C22        -7.9716   -4.3525   -0.0374 C.3       1 <0>        -0.0464
     35 C23        -9.8030   -2.8232    0.2112 C.3       1 <0>        -0.0456
     36 O7         -0.0610   -2.7685   -4.1057 O.3       1 <0>        -0.4774
     37 H4          0.8772    1.0685    1.3252 H         1 <0>         0.0285
     38 H5         -0.5995    1.2884    0.3561 H         1 <0>         0.0551
     39 H6         -0.7172    1.0516    2.1163 H         1 <0>         0.0535
     40 H7         -0.3915   -0.9748    3.0863 H         1 <0>         0.0600
     41 H8         -1.3038   -2.1339    2.0899 H         1 <0>         0.0393
     42 H9          0.4694   -2.2510    2.1928 H         1 <0>         0.0354
     43 H10         1.9221   -1.4115   -0.2900 H         1 <0>         0.1176
     44 H11         2.0110   -2.3344   -2.5646 H         1 <0>         0.1229
     45 H12        -2.6204   -0.9794    0.7000 H         1 <0>         0.0660
     46 H13        -2.9517    0.0334   -0.7223 H         1 <0>         0.0712
     47 H14        -5.1875   -1.4218    0.7684 H         1 <0>         0.0626
     48 H15        -5.2938   -0.3727   -0.6695 H         1 <0>         0.0751
     49 H16        -7.1392   -3.2761   -3.8610 H         1 <0>         0.4029
     50 H17        -9.4294    1.4881   -0.7937 H         1 <0>         0.4003
     51 H18        -9.9278    2.4177   -2.1013 H         1 <0>         0.3766
     52 H19        -7.6559   -4.2623    1.0020 H         1 <0>         0.1124
     53 H20        -8.7269   -5.1338   -0.1212 H         1 <0>         0.1149
     54 H21        -7.1125   -4.6096   -0.6571 H         1 <0>         0.1317
     55 H22       -10.2225   -1.8749   -0.1247 H         1 <0>         0.1242
     56 H23       -10.5048   -3.6283   -0.0065 H         1 <0>         0.1138
     57 H24        -9.6212   -2.7800    1.2850 H         1 <0>         0.1153
     58 H25        -0.1159   -3.7332   -4.1437 H         1 <0>         0.3835
     59 H26        -8.7052   -3.1143   -1.4842 H         1 <0>         0.4348
@<TRIPOS>BOND
     1    1    2 1
     2    1   37 1
     3    1   38 1
     4    1   39 1
     5    2    3 1
     6    2    4 1
     7    3   40 1
     8    3   41 1
     9    3   42 1
    10    4    9 ar
    11    4    5 ar
    12    5    6 ar
    13    5   43 1
    14    6    7 ar
    15    6   44 1
    16    7    8 ar
    17    7   36 1
    18    8   26 1
    19    8    9 ar
    20    9   10 1
    21   10   11 1
    22   10   45 1
    23   10   46 1
    24   11   12 1
    25   11   25 1
    26   11   13 1
    27   13   14 1
    28   13   47 1
    29   13   48 1
    30   14   15 1
    31   14   22 1
    32   14   16 1
    33   16   17 1
    34   16   18 1
    35   16   33 1
    36   18   19 2
    37   18   20 1
    38   20   21 2
    39   20   30 1
    40   21   22 1
    41   21   29 1
    42   22   23 1
    43   22   28 1
    44   23   24 1
    45   23   25 2
    46   25   26 1
    47   26   27 2
    48   28   49 1
    49   30   31 2
    50   30   32 am
    51   32   50 1
    52   32   51 1
    53   33   34 1
    54   33   35 1
    55   33   59 1
    56   34   52 1
    57   34   53 1
    58   34   54 1
    59   35   55 1
    60   35   56 1
    61   35   57 1
    62   36   58 1
@<TRIPOS>MOLECULE
ZINC13545632
   24    24     0     0     0
SMALL
USER_CHARGES

@<TRIPOS>ATOM
      1 C1         -0.0187    1.5258    0.0104 C.3       1 <0>        -0.1572
      2 C2          0.0021   -0.0041    0.0020 C.3       1 <0>        -0.0952
      3 C3         -1.4333   -0.5336    0.0129 C.3       1 <0>        -0.1663
      4 C4         -2.0625   -0.1661    1.3442 C.2       1 <0>         0.5490
      5 O1         -1.5790   -0.5310    2.3943 O.2       1 <0>        -0.5273
      6 N1         -3.1854    0.5851    1.3085 N.am      1 <0>        -0.6849
      7 C5         -3.7279    0.9939    0.1309 C.2       1 <0>         0.6418
      8 O2         -4.8464    1.7392    0.1861 O.3       1 <0>        -0.6616
      9 N2         -3.2419    0.7163   -1.0544 N.2       1 <0>        -0.6812
     10 C6         -2.1377   -0.0143   -1.2259 C.2       1 <0>         0.5353
     11 O3         -1.7113   -0.2555   -2.3378 O.2       1 <0>        -0.5390
     12 C7         -1.3752   -2.0599   -0.0767 C.3       1 <0>        -0.0955
     13 C8         -2.7967   -2.6258   -0.0684 C.3       1 <0>        -0.1573
     14 H1          1.0039    1.9031    0.0027 H         1 <0>         0.0586
     15 H2         -0.5459    1.8868   -0.8726 H         1 <0>         0.0620
     16 H3         -0.5289    1.8773    0.9072 H         1 <0>         0.0476
     17 H4          0.5123   -0.3556   -0.8948 H         1 <0>         0.0809
     18 H5          0.5293   -0.3651    0.8851 H         1 <0>         0.0710
     19 H6         -3.6137    0.8378    2.1413 H         1 <0>         0.3991
     20 H7         -0.8738   -2.3509   -0.9998 H         1 <0>         0.0812
     21 H8         -0.8226   -2.4532    0.7765 H         1 <0>         0.0710
     22 H9         -3.2982   -2.3348    0.8547 H         1 <0>         0.0479
     23 H10        -3.3494   -2.2325   -0.9216 H         1 <0>         0.0611
     24 H11        -2.7553   -3.7131   -0.1322 H         1 <0>         0.0589
@<TRIPOS>BOND
     1    1    2 1
     2    1   14 1
     3    1   15 1
     4    1   16 1
     5    2    3 1
     6    2   17 1
     7    2   18 1
     8    3   10 1
     9    3    4 1
    10    3   12 1
    11    4    5 2
    12    4    6 am
    13    6    7 1
    14    6   19 1
    15    7    8 1
    16    7    9 2
    17    9   10 1
    18   10   11 2
    19   12   13 1
    20   12   20 1
    21   12   21 1
    22   13   22 1
    23   13   23 1
    24   13   24 1
@<TRIPOS>MOLECULE
ZINC18098320
   64    65     0     0     0
SMALL
NO_CHARGES

@<TRIPOS>ATOM
      1 C1         11.6789   -9.2555   -7.8268 C.ar      1 <0>        -0.1360
      2 C2         12.8676   -9.0028   -7.1378 C.ar      1 <0>         0.1703
      3 C3         13.7925  -10.0331   -6.9519 C.ar      1 <0>        -0.1387
      4 C4         13.5270  -11.2920   -7.4490 C.ar      1 <0>        -0.0907
      5 C5         12.3468  -11.5357   -8.1311 C.ar      1 <0>        -0.0693
      6 C6         11.4258  -10.5189   -8.3188 C.ar      1 <0>        -0.0910
      7 Cl1        12.0205  -13.1231   -8.7535 Cl        1 <0>        -0.0839
      8 N1         13.1250   -7.7520   -6.6478 N.2       1 <0>        -0.6421
      9 C7         13.4362   -7.5931   -5.3753 C.2       1 <0>         0.6343
     10 N2         13.3837   -8.6414   -4.5340 N.2       1 <0>        -0.6933
     11 C8         12.2174   -9.0756   -4.0919 C.2       1 <0>         0.6987
     12 N3         11.0593   -8.5299   -4.5701 N.pl3     1 <0>        -0.7471
     13 C9          9.7686   -8.9564   -4.0240 C.3       1 <0>         0.1066
     14 C10         8.6385   -8.2488   -4.7744 C.3       1 <0>        -0.1304
     15 C11         7.2979   -8.5987   -4.1253 C.3       1 <0>        -0.1143
     16 C12         6.1594   -7.9896   -4.9461 C.3       1 <0>        -0.1153
     17 C13         4.8281   -8.2368   -4.2337 C.3       1 <0>        -0.1340
     18 C14         3.6896   -7.6277   -5.0545 C.3       1 <0>         0.1500
     19 N4          2.4149   -7.8644   -4.3724 N.pl3     1 <0>        -0.7242
     20 C15         1.2435   -7.4048   -4.9258 C.2       1 <0>         0.6291
     21 N5          0.0433   -7.6277   -4.2835 N.pl3     1 <0>        -0.7363
     22 C16        -1.1406   -7.2863   -4.8986 C.2       1 <0>         0.6482
     23 N6         -2.1778   -8.0850   -4.8140 N.2       1 <0>        -0.5280
     24 C17        -2.0724   -9.2765   -4.1455 C.ar      1 <0>         0.1127
     25 C18        -1.0928  -10.2013   -4.5116 C.ar      1 <0>        -0.1365
     26 C19        -0.9914  -11.3989   -3.8343 C.ar      1 <0>        -0.0919
     27 C20        -1.8586  -11.6844   -2.7935 C.ar      1 <0>        -0.0496
     28 C21        -2.8325  -10.7715   -2.4259 C.ar      1 <0>        -0.0922
     29 C22        -2.9403   -9.5680   -3.0917 C.ar      1 <0>        -0.1073
     30 Cl2        -1.7247  -13.1936   -1.9461 Cl        1 <0>        -0.0688
     31 N7         -1.2353   -6.1104   -5.5999 N.pl3     1 <0>        -0.8741
     32 N8          1.2669   -6.7587   -6.0566 N.2       1 <0>        -0.8057
     33 N9         12.1687  -10.0705   -3.1563 N.pl3     1 <0>        -0.8270
     34 N10        13.8153   -6.3526   -4.9080 N.pl3     1 <0>        -0.8349
     35 H1         10.9578   -8.4644   -7.9700 H         1 <0>         0.1238
     36 H2         14.7135   -9.8443   -6.4205 H         1 <0>         0.1262
     37 H3         14.2414  -12.0894   -7.3063 H         1 <0>         0.1252
     38 H4         10.5072  -10.7156   -8.8517 H         1 <0>         0.1271
     39 H5          9.6629  -10.0349   -4.1411 H         1 <0>         0.0688
     40 H6          9.7189   -8.6992   -2.9659 H         1 <0>         0.0678
     41 H7          8.7927   -7.1706   -4.7309 H         1 <0>         0.0712
     42 H8          8.6341   -8.5735   -5.8149 H         1 <0>         0.0744
     43 H9          7.1823   -9.6820   -4.0916 H         1 <0>         0.0672
     44 H10         7.2695   -8.1986   -3.1118 H         1 <0>         0.0663
     45 H11         6.3212   -6.9168   -5.0517 H         1 <0>         0.0677
     46 H12         6.1349   -8.4522   -5.9327 H         1 <0>         0.0686
     47 H13         4.6663   -9.3095   -4.1281 H         1 <0>         0.0685
     48 H14         4.8526   -7.7742   -3.2471 H         1 <0>         0.0680
     49 H15         3.8515   -6.5550   -5.1601 H         1 <0>         0.0665
     50 H16         3.6652   -8.0903   -6.0411 H         1 <0>         0.0663
     51 H17        -0.4161   -9.9798   -5.3235 H         1 <0>         0.1270
     52 H18        -0.2343  -12.1153   -4.1168 H         1 <0>         0.1339
     53 H19        -3.5063  -11.0001   -1.6134 H         1 <0>         0.1377
     54 H20        -3.6973   -8.8547   -2.8010 H         1 <0>         0.1365
     55 H21        -1.1570   -5.2617   -5.1368 H         1 <0>         0.4144
     56 H22        -1.3806   -6.1280   -6.5588 H         1 <0>         0.4157
     57 H23         0.4605   -6.3349   -6.3897 H         1 <0>         0.3511
     58 H24        12.9907  -10.4578   -2.8169 H         1 <0>         0.4238
     59 H25        11.3121  -10.3893   -2.8316 H         1 <0>         0.4101
     60 H26        13.8531   -5.5966   -5.5146 H         1 <0>         0.4092
     61 H27        14.0441   -6.2357   -3.9727 H         1 <0>         0.4071
     62 H28        11.0920   -7.8603   -5.2711 H         1 <0>         0.4174
     63 H29         2.3975   -8.3455   -3.5303 H         1 <0>         0.4011
     64 H30         0.0331   -8.0249   -3.3986 H         1 <0>         0.4043
@<TRIPOS>BOND
     1    1    6 ar
     2    1    2 ar
     3    1   35 1
     4    2    3 ar
     5    2    8 1
     6    3    4 ar
     7    3   36 1
     8    4    5 ar
     9    4   37 1
    10    5    6 ar
    11    5    7 1
    12    6   38 1
    13    8    9 2
    14    9   10 1
    15    9   34 1
    16   10   11 2
    17   11   12 1
    18   11   33 1
    19   12   13 1
    20   12   62 1
    21   13   14 1
    22   13   39 1
    23   13   40 1
    24   14   15 1
    25   14   41 1
    26   14   42 1
    27   15   16 1
    28   15   43 1
    29   15   44 1
    30   16   17 1
    31   16   45 1
    32   16   46 1
    33   17   18 1
    34   17   47 1
    35   17   48 1
    36   18   19 1
    37   18   49 1
    38   18   50 1
    39   19   20 1
    40   19   63 1
    41   20   21 1
    42   20   32 2
    43   21   22 1
    44   21   64 1
    45   22   23 2
    46   22   31 1
    47   23   24 1
    48   24   29 ar
    49   24   25 ar
    50   25   26 ar
    51   25   51 1
    52   26   27 ar
    53   26   52 1
    54   27   28 ar
    55   27   30 1
    56   28   29 ar
    57   28   53 1
    58   29   54 1
    59   31   55 1
    60   31   56 1
    61   32   57 1
    62   33   58 1
    63   33   59 1
    64   34   60 1
    65   34   61 1
@<TRIPOS>MOLECULE
ZINC18098320
   64    65     0     0     0
SMALL
NO_CHARGES

@<TRIPOS>ATOM
      1 C1         -4.1874    4.0316    5.2060 C.ar      1 <0>        -0.1185
      2 C2         -3.2861    4.5782    4.2909 C.ar      1 <0>         0.1414
      3 C3         -2.8194    3.8004    3.2299 C.ar      1 <0>        -0.1677
      4 C4         -3.2509    2.4973    3.0917 C.ar      1 <0>        -0.0834
      5 C5         -4.1449    1.9608    4.0026 C.ar      1 <0>        -0.0598
      6 C6         -4.6114    2.7273    5.0571 C.ar      1 <0>        -0.0860
      7 Cl1        -4.6832    0.3203    3.8219 Cl        1 <0>        -0.0732
      8 N1         -2.8615    5.8733    4.4333 N.2       1 <0>        -0.6007
      9 C7         -1.5811    6.1351    4.5472 C.2       1 <0>         0.6520
     10 N2         -0.6660    5.1061    4.5555 N.pl3     1 <0>        -0.6706
     11 C8          0.6850    5.3845    4.5612 C.2       1 <0>         0.5951
     12 N3          1.5489    4.4168    4.6784 N.2       1 <0>        -0.5867
     13 C9          2.9774    4.7202    4.7944 C.3       1 <0>         0.0649
     14 C10         3.4848    4.2699    6.1657 C.3       1 <0>        -0.1130
     15 C11         4.9767    4.5868    6.2868 C.3       1 <0>        -0.1167
     16 C12         5.4841    4.1365    7.6582 C.3       1 <0>        -0.1144
     17 C13         6.9760    4.4534    7.7792 C.3       1 <0>        -0.1343
     18 C14         7.4834    4.0031    9.1506 C.3       1 <0>         0.1470
     19 N4          8.9119    4.3065    9.2665 N.pl3     1 <0>        -0.7201
     20 C15         9.5905    3.9901   10.4195 C.2       1 <0>         0.6216
     21 N5         10.9356    4.2758   10.5286 N.pl3     1 <0>        -0.7312
     22 C16        11.7060    3.6168   11.4605 C.2       1 <0>         0.6569
     23 N6         12.7866    4.1863   11.9391 N.2       1 <0>        -0.5985
     24 C17        13.2214    5.3770   11.4186 C.ar      1 <0>         0.1526
     25 C18        13.4946    5.4873   10.0541 C.ar      1 <0>        -0.1772
     26 C19        13.9316    6.6889    9.5360 C.ar      1 <0>        -0.0823
     27 C20        14.0993    7.7840   10.3664 C.ar      1 <0>        -0.0621
     28 C21        13.8305    7.6808   11.7207 C.ar      1 <0>        -0.0830
     29 C22        13.3874    6.4862   12.2498 C.ar      1 <0>        -0.1200
     30 Cl2        14.6496    9.2926    9.7069 Cl        1 <0>        -0.0721
     31 N7         11.3434    2.3643   11.8886 N.pl3     1 <0>        -0.8363
     32 N8          8.9633    3.4205   11.4088 N.2       1 <0>        -0.7924
     33 N9          1.1196    6.6834    4.4431 N.pl3     1 <0>        -0.9166
     34 N10        -1.1535    7.4345    4.6582 N.pl3     1 <0>        -0.8427
     35 H1         -4.5486    4.6270    6.0315 H         1 <0>         0.1342
     36 H2         -2.1223    4.2179    2.5185 H         1 <0>         0.1268
     37 H3         -2.8908    1.8946    2.2710 H         1 <0>         0.1326
     38 H4         -5.3084    2.3031    5.7646 H         1 <0>         0.1352
     39 H5          3.5253    4.1933    4.0132 H         1 <0>         0.0779
     40 H6          3.1309    5.7938    4.6847 H         1 <0>         0.0473
     41 H7          2.9369    4.7969    6.9469 H         1 <0>         0.0579
     42 H8          3.3313    3.1964    6.2754 H         1 <0>         0.0713
     43 H9          5.5246    4.0598    5.5057 H         1 <0>         0.0644
     44 H10         5.1302    5.6604    6.1772 H         1 <0>         0.0613
     45 H11         4.9362    4.6635    8.4393 H         1 <0>         0.0659
     46 H12         5.3306    3.0630    7.7678 H         1 <0>         0.0679
     47 H13         7.5240    3.9264    6.9981 H         1 <0>         0.0687
     48 H14         7.1295    5.5270    7.6696 H         1 <0>         0.0680
     49 H15         6.9355    4.5301    9.9317 H         1 <0>         0.0679
     50 H16         7.3299    2.9296    9.2602 H         1 <0>         0.0689
     51 H17        13.3644    4.6337    9.4054 H         1 <0>         0.1265
     52 H18        14.1436    6.7754    8.4806 H         1 <0>         0.1336
     53 H19        13.9636    8.5384   12.3634 H         1 <0>         0.1355
     54 H20        13.1735    6.4083   13.3055 H         1 <0>         0.1342
     55 H21        10.7109    1.8398   11.3731 H         1 <0>         0.4157
     56 H22        11.7197    2.0035   12.7066 H         1 <0>         0.4239
     57 H23         9.4312    3.2374   12.2385 H         1 <0>         0.3500
     58 H24         1.6656    7.0775    5.1413 H         1 <0>         0.4077
     59 H25         0.8802    7.2057    3.6616 H         1 <0>         0.4067
     60 H26        -1.6929    8.1551    4.2966 H         1 <0>         0.4146
     61 H27        -0.3120    7.6323    5.0982 H         1 <0>         0.4126
     62 H28         9.3790    4.7308    8.5298 H         1 <0>         0.4033
     63 H29        11.3387    4.9409    9.9489 H         1 <0>         0.4143
     64 H30        -0.9715    4.1854    4.5574 H         1 <0>         0.4332
@<TRIPOS>BOND
     1    1    6 ar
     2    1    2 ar
     3    1   35 1
     4    2    3 ar
     5    2    8 1
     6    3    4 ar
     7    3   36 1
     8    4    5 ar
     9    4   37 1
    10    5    6 ar
    11    5    7 1
    12    6   38 1
    13    8    9 2
    14    9   10 1
    15    9   34 1
    16   10   11 1
    17   10   64 1
    18   11   12 2
    19   11   33 1
    20   12   13 1
    21   13   14 1
    22   13   39 1
    23   13   40 1
    24   14   15 1
    25   14   41 1
    26   14   42 1
    27   15   16 1
    28   15   43 1
    29   15   44 1
    30   16   17 1
    31   16   45 1
    32   16   46 1
    33   17   18 1
    34   17   47 1
    35   17   48 1
    36   18   19 1
    37   18   49 1
    38   18   50 1
    39   19   20 1
    40   19   62 1
    41   20   21 1
    42   20   32 2
    43   21   22 1
    44   21   63 1
    45   22   23 2
    46   22   31 1
    47   23   24 1
    48   24   29 ar
    49   24   25 ar
    50   25   26 ar
    51   25   51 1
    52   26   27 ar
    53   26   52 1
    54   27   28 ar
    55   27   30 1
    56   28   29 ar
    57   28   53 1
    58   29   54 1
    59   31   55 1
    60   31   56 1
    61   32   57 1
    62   33   58 1
    63   33   59 1
    64   34   60 1
    65   34   61 1
@<TRIPOS>MOLECULE
ZINC03873156
   45    47     0     0     0
SMALL
USER_CHARGES

@<TRIPOS>ATOM
      1 C1          0.1187    1.4458    0.1346 C.3       1 <0>        -0.1743
      2 C2          0.1218   -0.0830    0.0746 C.3       1 <0>         0.0449
      3 N1          0.7603   -0.5215   -1.1689 N.pl3     1 <0>        -0.4318
      4 C3         -0.0011   -0.8294   -2.2279 C.2       1 <0>         0.2626
      5 C4          0.5618   -1.2476   -3.4224 C.2       1 <0>        -0.2890
      6 C5          1.9690   -1.3566   -3.5410 C.2       1 <0>         0.3627
      7 O1          2.5334   -1.7623   -4.6983 O.3       1 <0>        -0.4243
      8 C6          2.7650   -1.0336   -2.4304 C.2       1 <0>        -0.1380
      9 C7          2.1375   -0.6056   -1.2325 C.2       1 <0>         0.2135
     10 C8          2.9103   -0.2809   -0.1368 C.2       1 <0>        -0.0222
     11 C9          4.3114   -0.3727   -0.2208 C.2       1 <0>         0.2539
     12 C10         4.9269   -0.7961   -1.4246 C.2       1 <0>         0.0356
     13 C11         4.1708   -1.1266   -2.5000 C.2       1 <0>        -0.0045
     14 F1          6.2732   -0.8809   -1.4977 F         1 <0>        -0.1130
     15 N2          5.0630   -0.0598    0.8362 N.pl3     1 <0>        -0.6034
     16 C12         6.4562    0.3820    0.6695 C.3       1 <0>         0.0722
     17 C13         6.6532    1.6778    1.4632 C.3       1 <0>        -0.0201
     18 N3          6.2484    1.4626    2.8581 N.4       1 <0>        -0.5064
     19 C14         4.8101    1.1745    2.9227 C.3       1 <0>         0.0156
     20 H1          4.2560    1.9802    2.4410 H         1 <0>         0.1445
     21 C15         4.5200   -0.1409    2.2011 C.3       1 <0>         0.0522
     22 C16         4.3776    1.0618    4.3860 C.3       1 <0>        -0.1824
     23 F2          2.3243    0.1238    1.0112 F         1 <0>        -0.1049
     24 C17        -0.3001   -1.5783   -4.5652 C.2       1 <0>         0.5372
     25 O2         -1.5049   -1.3731   -4.5025 O.co2     1 <0>        -0.6288
     26 O3          0.1868   -2.0591   -5.5799 O.co2     1 <0>        -0.6491
     27 H2          1.1446    1.8128    0.1039 H         1 <0>         0.0637
     28 H3         -0.4344    1.8418   -0.7171 H         1 <0>         0.0752
     29 H4         -0.3564    1.7721    1.0598 H         1 <0>         0.0945
     30 H5          0.6750   -0.4789    0.9263 H         1 <0>         0.1301
     31 H6         -0.9041   -0.4499    0.1053 H         1 <0>         0.1215
     32 H7         -1.0752   -0.7501   -2.1483 H         1 <0>         0.2149
     33 H8          4.6456   -1.4490   -3.4149 H         1 <0>         0.1828
     34 H9          7.1316   -0.3855    1.0478 H         1 <0>         0.1079
     35 H10         6.6589    0.5644   -0.3858 H         1 <0>         0.1476
     36 H11         7.7033    1.9682    1.4301 H         1 <0>         0.1547
     37 H12         6.0434    2.4682    1.0256 H         1 <0>         0.1377
     38 H13         6.7637    0.6837    3.2402 H         1 <0>         0.4289
     39 H14         3.4432   -0.3039    2.1578 H         1 <0>         0.1626
     40 H15         4.9965   -0.9620    2.7366 H         1 <0>         0.1052
     41 H16         4.5833    2.0012    4.8991 H         1 <0>         0.0917
     42 H17         3.3098    0.8479    4.4338 H         1 <0>         0.1116
     43 H18         4.9314    0.2559    4.8676 H         1 <0>         0.0868
     44 H19         6.4486    2.2919    3.3969 H         1 <0>         0.4359
     45 H20         1.9042   -1.8779   -5.4235 H         1 <0>         0.4438
@<TRIPOS>BOND
     1    1    2 1
     2    1   27 1
     3    1   28 1
     4    1   29 1
     5    2    3 1
     6    2   30 1
     7    2   31 1
     8    3    9 1
     9    3    4 1
    10    4    5 2
    11    4   32 1
    12    5    6 1
    13    5   24 1
    14    6    7 1
    15    6    8 2
    16    7   45 1
    17    8   13 1
    18    8    9 1
    19    9   10 2
    20   10   11 1
    21   10   23 1
    22   11   12 1
    23   11   15 2
    24   12   13 2
    25   12   14 1
    26   13   33 1
    27   15   21 1
    28   15   16 1
    29   16   17 1
    30   16   34 1
    31   16   35 1
    32   17   18 1
    33   17   36 1
    34   17   37 1
    35   18   19 1
    36   18   38 1
    37   18   44 1
    38   19   20 1
    39   19   21 1
    40   19   22 1
    41   21   39 1
    42   21   40 1
    43   22   41 1
    44   22   42 1
    45   22   43 1
    46   24   25 2
    47   24   26 1
@<TRIPOS>MOLECULE
ZINC03873157
   45    47     0     0     0
SMALL
USER_CHARGES

@<TRIPOS>ATOM
      1 C1          0.0379   -0.5074    1.0084 C.3       1 <0>        -0.1751
      2 C2          0.3370    0.5515   -0.0547 C.3       1 <0>         0.0461
      3 N1          0.8736   -0.0980   -1.2533 N.pl3     1 <0>        -0.4312
      4 C3          0.0546   -0.3685   -2.2791 C.2       1 <0>         0.2637
      5 C4          0.5207   -0.9809   -3.4307 C.2       1 <0>        -0.2894
      6 C5          1.8881   -1.3338   -3.5399 C.2       1 <0>         0.3623
      7 O1          2.3585   -1.9308   -4.6557 O.3       1 <0>        -0.4251
      8 C6          2.7445   -1.0495   -2.4642 C.2       1 <0>        -0.1386
      9 C7          2.2163   -0.4164   -1.3101 C.2       1 <0>         0.2124
     10 C8          3.0500   -0.1279   -0.2494 C.2       1 <0>        -0.0161
     11 C9          4.4147   -0.4598   -0.3257 C.2       1 <0>         0.2519
     12 C10         4.9317   -1.0869   -1.4862 C.2       1 <0>         0.0304
     13 C11         4.1140   -1.3820   -2.5262 C.2       1 <0>        -0.0023
     14 F1          6.2439   -1.4018   -1.5523 F         1 <0>        -0.1091
     15 N2          5.2248   -0.1829    0.6976 N.pl3     1 <0>        -0.6038
     16 C12         4.8987    0.8878    1.6522 C.3       1 <0>         0.0714
     17 C13         6.1229    1.7976    1.7985 C.3       1 <0>        -0.0201
     18 N3          7.2908    0.9891    2.1704 N.4       1 <0>        -0.5063
     19 C14         7.6193    0.0562    1.0851 C.3       1 <0>         0.0153
     20 H1          7.7676    0.6128    0.1598 H         1 <0>         0.1460
     21 C15         6.4664   -0.9436    0.9067 C.3       1 <0>         0.0524
     22 C16         8.9011   -0.7025    1.4351 C.3       1 <0>        -0.1828
     23 F2          2.5580    0.4709    0.8572 F         1 <0>        -0.1086
     24 C17        -0.4024   -1.2646   -4.5377 C.2       1 <0>         0.5372
     25 O2         -1.5548   -0.8550   -4.4937 O.co2     1 <0>        -0.6287
     26 O3         -0.0190   -1.9105   -5.5039 O.co2     1 <0>        -0.6494
     27 H2         -0.6944   -1.2153    0.6202 H         1 <0>         0.0744
     28 H3          0.9561   -1.0369    1.2623 H         1 <0>         0.0656
     29 H4         -0.3613   -0.0242    1.9002 H         1 <0>         0.0951
     30 H5         -0.5812    1.0810   -0.3086 H         1 <0>         0.1211
     31 H6          1.0693    1.2594    0.3336 H         1 <0>         0.1300
     32 H7         -0.9900   -0.1040   -2.2062 H         1 <0>         0.2151
     33 H8          4.5137   -1.8605   -3.4081 H         1 <0>         0.1828
     34 H9          4.0544    1.4671    1.2785 H         1 <0>         0.1452
     35 H10         4.6483    0.4523    2.6195 H         1 <0>         0.1062
     36 H11         6.3164    2.3016    0.8516 H         1 <0>         0.1379
     37 H12         5.9333    2.5403    2.5735 H         1 <0>         0.1534
     38 H13         8.0785    1.5963    2.3403 H         1 <0>         0.4358
     39 H14         6.3717   -1.5609    1.8001 H         1 <0>         0.1055
     40 H15         6.6591   -1.5758    0.0399 H         1 <0>         0.1666
     41 H16         8.7526   -1.2593    2.3603 H         1 <0>         0.0863
     42 H17         9.1448   -1.3950    0.6294 H         1 <0>         0.1131
     43 H18         9.7189    0.0063    1.5648 H         1 <0>         0.0913
     44 H19         7.0841    0.4678    3.0093 H         1 <0>         0.4283
     45 H20         1.7066   -2.0062   -5.3660 H         1 <0>         0.4437
@<TRIPOS>BOND
     1    1    2 1
     2    1   27 1
     3    1   28 1
     4    1   29 1
     5    2    3 1
     6    2   30 1
     7    2   31 1
     8    3    9 1
     9    3    4 1
    10    4    5 2
    11    4   32 1
    12    5    6 1
    13    5   24 1
    14    6    7 1
    15    6    8 2
    16    7   45 1
    17    8   13 1
    18    8    9 1
    19    9   10 2
    20   10   11 1
    21   10   23 1
    22   11   12 1
    23   11   15 2
    24   12   13 2
    25   12   14 1
    26   13   33 1
    27   15   21 1
    28   15   16 1
    29   16   17 1
    30   16   34 1
    31   16   35 1
    32   17   18 1
    33   17   36 1
    34   17   37 1
    35   18   19 1
    36   18   38 1
    37   18   44 1
    38   19   20 1
    39   19   21 1
    40   19   22 1
    41   21   39 1
    42   21   40 1
    43   22   41 1
    44   22   42 1
    45   22   43 1
    46   24   25 2
    47   24   26 1
@<TRIPOS>MOLECULE
ZINC18098320
   64    65     0     0     0
SMALL
NO_CHARGES

@<TRIPOS>ATOM
      1 C1          0.1581   -5.4400    6.8734 C.ar      1 <0>        -0.1209
      2 C2          1.0725   -4.7501    6.0756 C.ar      1 <0>         0.1511
      3 C3          2.4257   -5.0898    6.1215 C.ar      1 <0>        -0.1733
      4 C4          2.8514   -6.1042    6.9540 C.ar      1 <0>        -0.0833
      5 C5          1.9395   -6.7851    7.7425 C.ar      1 <0>        -0.0614
      6 C6          0.5961   -6.4525    7.7018 C.ar      1 <0>        -0.0839
      7 Cl1         2.4828   -8.0608    8.7871 Cl        1 <0>        -0.0720
      8 N1          0.6435   -3.7437    5.2504 N.2       1 <0>        -0.6016
      9 C7          1.1019   -2.5249    5.4093 C.2       1 <0>         0.6570
     10 N2          1.9296   -2.2335    6.4705 N.pl3     1 <0>        -0.7300
     11 C8          1.9971   -0.9453    6.9591 C.2       1 <0>         0.6247
     12 N3          3.0723   -0.5548    7.7216 N.pl3     1 <0>        -0.7194
     13 C9          3.1439    0.8134    8.2405 C.3       1 <0>         0.1469
     14 C10         4.4308    0.9850    9.0500 C.3       1 <0>        -0.1354
     15 C11         4.5057    2.4139    9.5920 C.3       1 <0>        -0.1145
     16 C12         5.7926    2.5855   10.4015 C.3       1 <0>        -0.1144
     17 C13         5.8674    4.0144   10.9434 C.3       1 <0>        -0.1355
     18 C14         7.1543    4.1861   11.7530 C.3       1 <0>         0.1462
     19 N4          7.2260    5.5542   12.2719 N.pl3     1 <0>        -0.7188
     20 C15         8.3011    5.9447   13.0344 C.2       1 <0>         0.6239
     21 N5          8.3686    7.2329   13.5230 N.pl3     1 <0>        -0.7225
     22 C16         9.5871    7.7783   13.8605 C.2       1 <0>         0.6585
     23 N6          9.6416    8.9536   14.4408 N.2       1 <0>        -0.6015
     24 C17         8.4997    9.6954   14.5946 C.ar      1 <0>         0.1443
     25 C18         7.7627   10.0873   13.4757 C.ar      1 <0>        -0.1670
     26 C19         6.6137   10.8336   13.6371 C.ar      1 <0>        -0.0855
     27 C20         6.1912   11.1939   14.9054 C.ar      1 <0>        -0.0597
     28 C21         6.9181   10.8085   16.0190 C.ar      1 <0>        -0.0858
     29 C22         8.0656   10.0572   15.8710 C.ar      1 <0>        -0.1203
     30 Cl2         4.7442   12.1331   15.1002 Cl        1 <0>        -0.0716
     31 N7         10.7446    7.0923   13.5899 N.pl3     1 <0>        -0.8454
     32 N8          9.2561    5.0983   13.2955 N.2       1 <0>        -0.8013
     33 N9          1.0421   -0.0988    6.6980 N.2       1 <0>        -0.7974
     34 N10         0.7564   -1.5402    4.5179 N.pl3     1 <0>        -0.8346
     35 H1         -0.8895   -5.1787    6.8456 H         1 <0>         0.1335
     36 H2          3.1379   -4.5599    5.5063 H         1 <0>         0.1268
     37 H3          3.8980   -6.3680    6.9904 H         1 <0>         0.1336
     38 H4         -0.1104   -6.9870    8.3195 H         1 <0>         0.1353
     39 H5          3.1411    1.5180    7.4089 H         1 <0>         0.0687
     40 H6          2.2833    1.0044    8.8815 H         1 <0>         0.0685
     41 H7          4.4337    0.2804    9.8817 H         1 <0>         0.0696
     42 H8          5.2915    0.7940    8.4090 H         1 <0>         0.0693
     43 H9          4.5028    3.1185    8.7604 H         1 <0>         0.0673
     44 H10         3.6450    2.6049   10.2330 H         1 <0>         0.0674
     45 H11         5.7954    1.8809   11.2331 H         1 <0>         0.0675
     46 H12         6.6532    2.3945    9.7605 H         1 <0>         0.0673
     47 H13         5.8646    4.7190   10.1118 H         1 <0>         0.0694
     48 H14         5.0067    4.2054   11.5844 H         1 <0>         0.0696
     49 H15         7.1571    3.4814   12.5846 H         1 <0>         0.0689
     50 H16         8.0150    3.9950   11.1120 H         1 <0>         0.0689
     51 H17         8.0914    9.8072   12.4858 H         1 <0>         0.1271
     52 H18         6.0428   11.1378   12.7722 H         1 <0>         0.1336
     53 H19         6.5836   11.0929   17.0057 H         1 <0>         0.1355
     54 H20         8.6292    9.7531   16.7407 H         1 <0>         0.1342
     55 H21        10.7573    6.4187   12.8921 H         1 <0>         0.4180
     56 H22        11.5500    7.2811   14.0965 H         1 <0>         0.4224
     57 H23         9.9790    5.3512   13.8907 H         1 <0>         0.3547
     58 H24         0.2342   -0.4009    6.2542 H         1 <0>         0.3504
     59 H25         0.0464   -1.6949    3.8754 H         1 <0>         0.4238
     60 H26         1.2224   -0.6895    4.5303 H         1 <0>         0.4159
     61 H27         3.7834   -1.1851    7.9160 H         1 <0>         0.4037
     62 H28         6.5148    6.1845   12.0774 H         1 <0>         0.4041
     63 H29         7.5577    7.7546   13.6288 H         1 <0>         0.4153
     64 H30         2.4653   -2.9340    6.8744 H         1 <0>         0.4144
@<TRIPOS>BOND
     1    1    6 ar
     2    1    2 ar
     3    1   35 1
     4    2    3 ar
     5    2    8 1
     6    3    4 ar
     7    3   36 1
     8    4    5 ar
     9    4   37 1
    10    5    6 ar
    11    5    7 1
    12    6   38 1
    13    8    9 2
    14    9   10 1
    15    9   34 1
    16   10   11 1
    17   10   64 1
    18   11   12 1
    19   11   33 2
    20   12   13 1
    21   12   61 1
    22   13   14 1
    23   13   39 1
    24   13   40 1
    25   14   15 1
    26   14   41 1
    27   14   42 1
    28   15   16 1
    29   15   43 1
    30   15   44 1
    31   16   17 1
    32   16   45 1
    33   16   46 1
    34   17   18 1
    35   17   47 1
    36   17   48 1
    37   18   19 1
    38   18   49 1
    39   18   50 1
    40   19   20 1
    41   19   62 1
    42   20   21 1
    43   20   32 2
    44   21   22 1
    45   21   63 1
    46   22   23 2
    47   22   31 1
    48   23   24 1
    49   24   29 ar
    50   24   25 ar
    51   25   26 ar
    52   25   51 1
    53   26   27 ar
    54   26   52 1
    55   27   28 ar
    56   27   30 1
    57   28   29 ar
    58   28   53 1
    59   29   54 1
    60   31   55 1
    61   31   56 1
    62   32   57 1
    63   33   58 1
    64   34   59 1
    65   34   60 1
@<TRIPOS>MOLECULE
ZINC18098320
   64    65     0     0     0
SMALL
NO_CHARGES

@<TRIPOS>ATOM
      1 C1         -3.8238   -2.6937    8.4621 C.ar      1 <0>        -0.1247
      2 C2         -2.8193   -2.0374    7.7489 C.ar      1 <0>         0.1609
      3 C3         -1.7827   -2.7754    7.1747 C.ar      1 <0>        -0.1884
      4 C4         -1.7568   -4.1475    7.3151 C.ar      1 <0>        -0.0818
      5 C5         -2.7564   -4.7928    8.0234 C.ar      1 <0>        -0.0681
      6 C6         -3.7868   -4.0663    8.5955 C.ar      1 <0>        -0.0821
      7 Cl1        -2.7171   -6.5198    8.1952 Cl        1 <0>        -0.0758
      8 N1         -2.8508   -0.6742    7.6125 N.2       1 <0>        -0.6290
      9 C7         -1.8339    0.0491    8.0171 C.2       1 <0>         0.6722
     10 N2         -0.7402   -0.5603    8.5905 N.pl3     1 <0>        -0.6778
     11 C8          0.2736    0.2056    9.1273 C.2       1 <0>         0.6407
     12 N3          1.4295   -0.3947    9.5670 N.pl3     1 <0>        -0.7605
     13 C9          2.5062    0.4188   10.1372 C.3       1 <0>         0.1236
     14 C10         3.6695   -0.4878   10.5443 C.3       1 <0>        -0.1298
     15 C11         4.7940    0.3618   11.1398 C.3       1 <0>        -0.1160
     16 C12         5.9573   -0.5448   11.5469 C.3       1 <0>        -0.1146
     17 C13         7.0818    0.3048   12.1424 C.3       1 <0>        -0.1355
     18 C14         8.2451   -0.6018   12.5495 C.3       1 <0>         0.1458
     19 N4          9.3218    0.2117   13.1197 N.pl3     1 <0>        -0.7178
     20 C15        10.4777   -0.3885   13.5594 C.2       1 <0>         0.6282
     21 N5         11.4915    0.3774   14.0963 N.pl3     1 <0>        -0.7211
     22 C16        12.7747   -0.1193   14.1510 C.2       1 <0>         0.6582
     23 N6         13.7144    0.5577   14.7671 N.2       1 <0>        -0.6049
     24 C17        13.4516    1.8143   15.2461 C.ar      1 <0>         0.1451
     25 C18        13.0777    2.8344   14.3696 C.ar      1 <0>        -0.1664
     26 C19        12.8139    4.0974   14.8580 C.ar      1 <0>        -0.0857
     27 C20        12.9194    4.3541   16.2144 C.ar      1 <0>        -0.0599
     28 C21        13.2902    3.3466   17.0888 C.ar      1 <0>        -0.0858
     29 C22        13.5510    2.0782   16.6133 C.ar      1 <0>        -0.1211
     30 Cl2        12.5858    5.9460   16.8214 Cl        1 <0>        -0.0717
     31 N7         13.0705   -1.3226   13.5608 N.pl3     1 <0>        -0.8440
     32 N8         10.6156   -1.6806   13.4691 N.2       1 <0>        -0.8078
     33 N9          0.1357    1.4977    9.2177 N.2       1 <0>        -0.8110
     34 N10        -1.8600    1.4133    7.8690 N.pl3     1 <0>        -0.8128
     35 H1         -4.6259   -2.1278    8.9123 H         1 <0>         0.1340
     36 H2         -1.0029   -2.2733    6.6214 H         1 <0>         0.1260
     37 H3         -0.9554   -4.7196    6.8714 H         1 <0>         0.1311
     38 H4         -4.5634   -4.5753    9.1471 H         1 <0>         0.1338
     39 H5          2.8496    1.1391    9.3947 H         1 <0>         0.0677
     40 H6          2.1352    0.9497   11.0140 H         1 <0>         0.0675
     41 H7          3.3262   -1.2081   11.2869 H         1 <0>         0.0734
     42 H8          4.0405   -1.0186    9.6676 H         1 <0>         0.0734
     43 H9          5.1374    1.0821   10.3973 H         1 <0>         0.0677
     44 H10         4.4230    0.8927   12.0166 H         1 <0>         0.0678
     45 H11         5.6140   -1.2651   12.2895 H         1 <0>         0.0685
     46 H12         6.3283   -1.0756   10.6702 H         1 <0>         0.0684
     47 H13         7.4251    1.0252   11.3999 H         1 <0>         0.0696
     48 H14         6.7108    0.8357   13.0192 H         1 <0>         0.0698
     49 H15         7.9017   -1.3221   13.2921 H         1 <0>         0.0697
     50 H16         8.6161   -1.1326   11.6728 H         1 <0>         0.0697
     51 H17        12.9955    2.6355   13.3113 H         1 <0>         0.1269
     52 H18        12.5249    4.8875   14.1808 H         1 <0>         0.1334
     53 H19        13.3710    3.5531   18.1458 H         1 <0>         0.1355
     54 H20        13.8355    1.2919   17.2969 H         1 <0>         0.1341
     55 H21        12.4569   -1.7112   12.9178 H         1 <0>         0.4193
     56 H22        13.8930   -1.7844   13.7868 H         1 <0>         0.4217
     57 H23        11.3983   -2.1123   13.8458 H         1 <0>         0.3552
     58 H24         0.8486    2.0363    9.5952 H         1 <0>         0.3547
     59 H25        -2.6225    1.8410    7.4486 H         1 <0>         0.4065
     60 H26        -1.1161    1.9498    8.1846 H         1 <0>         0.4283
     61 H27         1.5322   -1.3569    9.4997 H         1 <0>         0.3986
     62 H28         9.2191    1.1739   13.1870 H         1 <0>         0.4045
     63 H29        11.3005    1.2659   14.4354 H         1 <0>         0.4159
     64 H30        -0.6827   -1.5283    8.6168 H         1 <0>         0.4269
@<TRIPOS>BOND
     1    1    6 ar
     2    1    2 ar
     3    1   35 1
     4    2    3 ar
     5    2    8 1
     6    3    4 ar
     7    3   36 1
     8    4    5 ar
     9    4   37 1
    10    5    6 ar
    11    5    7 1
    12    6   38 1
    13    8    9 2
    14    9   10 1
    15    9   34 1
    16   10   11 1
    17   10   64 1
    18   11   12 1
    19   11   33 2
    20   12   13 1
    21   12   61 1
    22   13   14 1
    23   13   39 1
    24   13   40 1
    25   14   15 1
    26   14   41 1
    27   14   42 1
    28   15   16 1
    29   15   43 1
    30   15   44 1
    31   16   17 1
    32   16   45 1
    33   16   46 1
    34   17   18 1
    35   17   47 1
    36   17   48 1
    37   18   19 1
    38   18   49 1
    39   18   50 1
    40   19   20 1
    41   19   62 1
    42   20   21 1
    43   20   32 2
    44   21   22 1
    45   21   63 1
    46   22   23 2
    47   22   31 1
    48   23   24 1
    49   24   29 ar
    50   24   25 ar
    51   25   26 ar
    52   25   51 1
    53   26   27 ar
    54   26   52 1
    55   27   28 ar
    56   27   30 1
    57   28   29 ar
    58   28   53 1
    59   29   54 1
    60   31   55 1
    61   31   56 1
    62   32   57 1
    63   33   58 1
    64   34   59 1
    65   34   60 1
@<TRIPOS>MOLECULE
ZINC18098320
   65    66     0     0     0
SMALL
NO_CHARGES

@<TRIPOS>ATOM
      1 C1          4.3154   -0.8210    6.1717 C.ar      1 <0>        -0.1166
      2 C2          4.7095   -1.7599    5.2272 C.ar      1 <0>         0.1406
      3 C3          3.8874   -2.0378    4.1429 C.ar      1 <0>        -0.1676
      4 C4          2.6805   -1.3802    4.0066 C.ar      1 <0>        -0.0822
      5 C5          2.2905   -0.4449    4.9489 C.ar      1 <0>        -0.0975
      6 C6          3.1076   -0.1664    6.0305 C.ar      1 <0>        -0.0893
      7 Cl1         0.7731    0.3803    4.7742 Cl        1 <0>        -0.0938
      8 N1          5.9327   -2.4241    5.3675 N.pl3     1 <0>        -0.6055
      9 C7          7.0245   -1.7582    5.8904 C.cat     1 <0>         0.3570
     10 N2          6.9106   -0.4684    6.2669 N.2       1 <0>        -0.5847
     11 C8          7.8204    0.4109    5.8928 C.2       1 <0>         0.5590
     12 N3          8.7980    0.0488    5.0086 N.pl3     1 <0>        -0.7522
     13 C9          9.7811    1.0372    4.5584 C.3       1 <0>         0.1101
     14 C10        10.7557    0.3781    3.5802 C.3       1 <0>        -0.1290
     15 C11        11.7825    1.4104    3.1100 C.3       1 <0>        -0.1157
     16 C12        12.7570    0.7513    2.1319 C.3       1 <0>        -0.1147
     17 C13        13.7838    1.7835    1.6616 C.3       1 <0>        -0.1352
     18 C14        14.7584    1.1245    0.6835 C.3       1 <0>         0.1466
     19 N4         15.7415    2.1129    0.2333 N.pl3     1 <0>        -0.7189
     20 C15        16.7247    1.7487   -0.6559 C.2       1 <0>         0.6264
     21 N5         17.6504    2.6793   -1.0799 N.pl3     1 <0>        -0.7195
     22 C16        18.3759    2.4548   -2.2285 C.2       1 <0>         0.6592
     23 N6         19.3411    3.2769   -2.5659 N.2       1 <0>        -0.6021
     24 C17        19.5281    4.4388   -1.8640 C.ar      1 <0>         0.1410
     25 C18        18.5725    5.4547   -1.9228 C.ar      1 <0>        -0.1561
     26 C19        18.7663    6.6219   -1.2135 C.ar      1 <0>        -0.0874
     27 C20        19.9057    6.7869   -0.4444 C.ar      1 <0>        -0.0582
     28 C21        20.8573    5.7832   -0.3823 C.ar      1 <0>        -0.0875
     29 C22        20.6722    4.6091   -1.0825 C.ar      1 <0>        -0.1239
     30 Cl2        20.1423    8.2587    0.4453 Cl        1 <0>        -0.0714
     31 N7         18.0894    1.3712   -3.0205 N.pl3     1 <0>        -0.8467
     32 N8         16.7821    0.5248   -1.0981 N.2       1 <0>        -0.8077
     33 N9          7.7854    1.6840    6.3892 N.pl3     1 <0>        -0.8328
     34 N10         8.1703   -2.3798    6.0203 N.pl3     1 <0>        -0.8322
     35 H1          4.9509   -0.6063    7.0181 H         1 <0>         0.1470
     36 H2          4.1916   -2.7671    3.4068 H         1 <0>         0.1175
     37 H3          2.0408   -1.5959    3.1636 H         1 <0>         0.1226
     38 H4          2.8005    0.5635    6.7649 H         1 <0>         0.1219
     39 H5          9.2676    1.8598    4.0608 H         1 <0>         0.0613
     40 H6         10.3318    1.4195    5.4179 H         1 <0>         0.0596
     41 H7         11.2692   -0.4445    4.0779 H         1 <0>         0.0686
     42 H8         10.2050   -0.0041    2.7208 H         1 <0>         0.0699
     43 H9         11.2689    2.2330    2.6124 H         1 <0>         0.0668
     44 H10        12.3332    1.7926    3.9695 H         1 <0>         0.0662
     45 H11        13.2706   -0.0714    2.6295 H         1 <0>         0.0673
     46 H12        12.2063    0.3690    1.2724 H         1 <0>         0.0677
     47 H13        13.2703    2.6062    1.1640 H         1 <0>         0.0694
     48 H14        14.3345    2.1658    2.5211 H         1 <0>         0.0692
     49 H15        15.2719    0.3018    1.1811 H         1 <0>         0.0689
     50 H16        14.2077    0.7422   -0.1760 H         1 <0>         0.0691
     51 H17        17.6835    5.3273   -2.5227 H         1 <0>         0.1276
     52 H18        18.0279    7.4088   -1.2585 H         1 <0>         0.1338
     53 H19        21.7442    5.9180    0.2191 H         1 <0>         0.1351
     54 H20        21.4130    3.8249   -1.0295 H         1 <0>         0.1331
     55 H21        17.2117    0.9601   -2.9808 H         1 <0>         0.4194
     56 H22        18.7645    1.0164   -3.6198 H         1 <0>         0.4218
     57 H23        17.5204    0.2472   -1.6626 H         1 <0>         0.3560
     58 H24         7.0917    1.9409    7.0166 H         1 <0>         0.4163
     59 H25         8.4542    2.3304    6.1142 H         1 <0>         0.4018
     60 H26         8.9320   -1.9177    6.4041 H         1 <0>         0.4075
     61 H27         8.2571   -3.3021    5.7328 H         1 <0>         0.3919
     62 H28         8.8407   -0.8626    4.6794 H         1 <0>         0.4090
     63 H29        15.6988    3.0243    0.5625 H         1 <0>         0.4039
     64 H30        17.7902    3.4918   -0.5689 H         1 <0>         0.4145
     65 H31         6.0143   -3.3522    5.0976 H         1 <0>         0.4039
@<TRIPOS>BOND
     1    1    6 ar
     2    1    2 ar
     3    1   35 1
     4    2    3 ar
     5    2    8 1
     6    3    4 ar
     7    3   36 1
     8    4    5 ar
     9    4   37 1
    10    5    6 ar
    11    5    7 1
    12    6   38 1
    13    8    9 1
    14    8   65 1
    15    9   10 1
    16    9   34 2
    17   10   11 2
    18   11   12 1
    19   11   33 1
    20   12   13 1
    21   12   62 1
    22   13   14 1
    23   13   39 1
    24   13   40 1
    25   14   15 1
    26   14   41 1
    27   14   42 1
    28   15   16 1
    29   15   43 1
    30   15   44 1
    31   16   17 1
    32   16   45 1
    33   16   46 1
    34   17   18 1
    35   17   47 1
    36   17   48 1
    37   18   19 1
    38   18   49 1
    39   18   50 1
    40   19   20 1
    41   19   63 1
    42   20   21 1
    43   20   32 2
    44   21   22 1
    45   21   64 1
    46   22   23 2
    47   22   31 1
    48   23   24 1
    49   24   29 ar
    50   24   25 ar
    51   25   26 ar
    52   25   51 1
    53   26   27 ar
    54   26   52 1
    55   27   28 ar
    56   27   30 1
    57   28   29 ar
    58   28   53 1
    59   29   54 1
    60   31   55 1
    61   31   56 1
    62   32   57 1
    63   33   58 1
    64   33   59 1
    65   34   60 1
    66   34   61 1
@<TRIPOS>MOLECULE
ZINC18098320
   64    65     0     0     0
SMALL
NO_CHARGES

@<TRIPOS>ATOM
      1 C1          9.2312   -3.9598    7.7560 C.ar      1 <0>        -0.1503
      2 C2         10.1467   -3.3413    8.5974 C.ar      1 <0>         0.1735
      3 C3          9.7000   -2.6388    9.7091 C.ar      1 <0>        -0.1103
      4 C4          8.3473   -2.5571    9.9750 C.ar      1 <0>        -0.0904
      5 C5          7.4372   -3.1748    9.1352 C.ar      1 <0>        -0.0612
      6 C6          7.8796   -3.8750    8.0266 C.ar      1 <0>        -0.0892
      7 Cl1         5.7375   -3.0705    9.4727 Cl        1 <0>        -0.0770
      8 N1         11.5165   -3.4260    8.3260 N.pl3     1 <0>        -0.7021
      9 C7         12.3483   -2.3662    8.6322 C.2       1 <0>         0.6087
     10 N2         11.8261   -1.2079    9.0837 N.2       1 <0>        -0.6441
     11 C8         12.0191   -0.0902    8.4096 C.2       1 <0>         0.7017
     12 N3         12.6563   -0.1224    7.2008 N.pl3     1 <0>        -0.7394
     13 C9         12.9727    1.1280    6.5059 C.3       1 <0>         0.1069
     14 C10        13.6794    0.8131    5.1860 C.3       1 <0>        -0.1301
     15 C11        14.0099    2.1190    4.4603 C.3       1 <0>        -0.1150
     16 C12        14.7166    1.8042    3.1404 C.3       1 <0>        -0.1152
     17 C13        15.0471    3.1100    2.4147 C.3       1 <0>        -0.1348
     18 C14        15.7538    2.7952    1.0948 C.3       1 <0>         0.1465
     19 N4         16.0703    4.0455    0.3999 N.pl3     1 <0>        -0.7193
     20 C15        16.7111    4.0131   -0.8158 C.2       1 <0>         0.6268
     21 N5         17.0090    5.1904   -1.4700 N.pl3     1 <0>        -0.7187
     22 C16        17.2936    5.1764   -2.8173 C.2       1 <0>         0.6603
     23 N6         17.6757    6.2781   -3.4185 N.2       1 <0>        -0.6018
     24 C17        17.6498    7.4708   -2.7443 C.ar      1 <0>         0.1368
     25 C18        16.4686    8.2115   -2.6755 C.ar      1 <0>        -0.1375
     26 C19        16.4488    9.4113   -1.9949 C.ar      1 <0>        -0.0895
     27 C20        17.5973    9.8811   -1.3808 C.ar      1 <0>        -0.0562
     28 C21        18.7721    9.1513   -1.4459 C.ar      1 <0>        -0.0896
     29 C22        18.8032    7.9473   -2.1186 C.ar      1 <0>        -0.1341
     30 Cl2        17.5645   11.3919   -0.5263 Cl        1 <0>        -0.0713
     31 N7         17.1775    4.0100   -3.5312 N.pl3     1 <0>        -0.8486
     32 N8         17.0369    2.8707   -1.3500 N.2       1 <0>        -0.8088
     33 N9         11.5818    1.1000    8.9202 N.pl3     1 <0>        -0.8292
     34 N10        13.6444   -2.4867    8.4839 N.2       1 <0>        -0.7975
     35 H1          9.5757   -4.5030    6.8884 H         1 <0>         0.1280
     36 H2         10.4099   -2.1572   10.3652 H         1 <0>         0.1548
     37 H3          7.9994   -2.0110   10.8394 H         1 <0>         0.1329
     38 H4          7.1672   -4.3555    7.3724 H         1 <0>         0.1322
     39 H5         12.0515    1.6743    6.3036 H         1 <0>         0.0651
     40 H6         13.6258    1.7361    7.1317 H         1 <0>         0.0686
     41 H7         14.6006    0.2668    5.3884 H         1 <0>         0.0741
     42 H8         13.0263    0.2050    4.5602 H         1 <0>         0.0699
     43 H9         13.0887    2.6653    4.2580 H         1 <0>         0.0665
     44 H10        14.6630    2.7271    5.0861 H         1 <0>         0.0676
     45 H11        15.6378    1.2578    3.3427 H         1 <0>         0.0685
     46 H12        14.0635    1.1960    2.5146 H         1 <0>         0.0676
     47 H13        14.1259    3.6563    2.2123 H         1 <0>         0.0691
     48 H14        15.7002    3.7181    3.0405 H         1 <0>         0.0696
     49 H15        16.6750    2.2488    1.2971 H         1 <0>         0.0692
     50 H16        15.1007    2.1870    0.4690 H         1 <0>         0.0689
     51 H17        15.5721    7.8462   -3.1544 H         1 <0>         0.1298
     52 H18        15.5356    9.9854   -1.9412 H         1 <0>         0.1344
     53 H19        19.6649    9.5232   -0.9652 H         1 <0>         0.1344
     54 H20        19.7189    7.3766   -2.1646 H         1 <0>         0.1307
     55 H21        16.5763    3.3125   -3.2261 H         1 <0>         0.4196
     56 H22        17.6966    3.8831   -4.3407 H         1 <0>         0.4213
     57 H23        17.5719    2.8485   -2.1589 H         1 <0>         0.3565
     58 H24        11.1296    1.1229    9.7780 H         1 <0>         0.4232
     59 H25        11.7236    1.9217    8.4246 H         1 <0>         0.4097
     60 H26        14.0261   -3.3414    8.2296 H         1 <0>         0.3276
     61 H27        12.8989   -0.9731    6.8029 H         1 <0>         0.4167
     62 H28        15.8276    4.8962    0.7978 H         1 <0>         0.4036
     63 H29        17.0181    6.0280   -0.9811 H         1 <0>         0.4135
     64 H30        11.8823   -4.2289    7.9227 H         1 <0>         0.4065
@<TRIPOS>BOND
     1    1    6 ar
     2    1    2 ar
     3    1   35 1
     4    2    3 ar
     5    2    8 1
     6    3    4 ar
     7    3   36 1
     8    4    5 ar
     9    4   37 1
    10    5    6 ar
    11    5    7 1
    12    6   38 1
    13    8    9 1
    14    8   64 1
    15    9   10 1
    16    9   34 2
    17   10   11 2
    18   11   12 1
    19   11   33 1
    20   12   13 1
    21   12   61 1
    22   13   14 1
    23   13   39 1
    24   13   40 1
    25   14   15 1
    26   14   41 1
    27   14   42 1
    28   15   16 1
    29   15   43 1
    30   15   44 1
    31   16   17 1
    32   16   45 1
    33   16   46 1
    34   17   18 1
    35   17   47 1
    36   17   48 1
    37   18   19 1
    38   18   49 1
    39   18   50 1
    40   19   20 1
    41   19   62 1
    42   20   21 1
    43   20   32 2
    44   21   22 1
    45   21   63 1
    46   22   23 2
    47   22   31 1
    48   23   24 1
    49   24   29 ar
    50   24   25 ar
    51   25   26 ar
    52   25   51 1
    53   26   27 ar
    54   26   52 1
    55   27   28 ar
    56   27   30 1
    57   28   29 ar
    58   28   53 1
    59   29   54 1
    60   31   55 1
    61   31   56 1
    62   32   57 1
    63   33   58 1
    64   33   59 1
    65   34   60 1
@<TRIPOS>MOLECULE
ZINC18098320
   64    65     0     0     0
SMALL
NO_CHARGES

@<TRIPOS>ATOM
      1 C1          5.4346   -2.5886    5.3418 C.ar      1 <0>        -0.1488
      2 C2          5.6872   -1.8022    6.4583 C.ar      1 <0>         0.1814
      3 C3          6.3600   -2.3419    7.5468 C.ar      1 <0>        -0.1006
      4 C4          6.7761   -3.6584    7.5164 C.ar      1 <0>        -0.0921
      5 C5          6.5235   -4.4396    6.4024 C.ar      1 <0>        -0.0597
      6 C6          5.8529   -3.9046    5.3166 C.ar      1 <0>        -0.0905
      7 Cl1         7.0485   -6.0940    6.3672 Cl        1 <0>        -0.0780
      8 N1          5.2650   -0.4688    6.4863 N.pl3     1 <0>        -0.6542
      9 C7          6.0116    0.4782    7.1605 C.2       1 <0>         0.6015
     10 N2          5.5677    1.7483    7.2498 N.2       1 <0>        -0.6929
     11 C8          6.2617    2.7296    6.7052 C.2       1 <0>         0.6861
     12 N3          7.3660    2.4487    5.9503 N.pl3     1 <0>        -0.7522
     13 C9          8.2026    3.5387    5.4422 C.3       1 <0>         0.1068
     14 C10         9.3639    2.9562    4.6342 C.3       1 <0>        -0.1314
     15 C11        10.2376    4.0946    4.1035 C.3       1 <0>        -0.1145
     16 C12        11.3990    3.5121    3.2955 C.3       1 <0>        -0.1156
     17 C13        12.2727    4.6505    2.7649 C.3       1 <0>        -0.1346
     18 C14        13.4340    4.0680    1.9569 C.3       1 <0>         0.1460
     19 N4         14.2706    5.1581    1.4488 N.pl3     1 <0>        -0.7188
     20 C15        15.3812    4.8755    0.6895 C.2       1 <0>         0.6268
     21 N5         16.1689    5.9019    0.2111 N.pl3     1 <0>        -0.7200
     22 C16        17.0223    5.6793   -0.8464 C.2       1 <0>         0.6590
     23 N6         17.8561    6.6186   -1.2254 N.2       1 <0>        -0.6027
     24 C17        17.7904    7.8634   -0.6564 C.ar      1 <0>         0.1415
     25 C18        16.6819    8.6807   -0.8845 C.ar      1 <0>        -0.1573
     26 C19        16.6214    9.9327   -0.3084 C.ar      1 <0>        -0.0875
     27 C20        17.6572   10.3792    0.4946 C.ar      1 <0>        -0.0584
     28 C21        18.7595    9.5734    0.7243 C.ar      1 <0>        -0.0873
     29 C22        18.8291    8.3172    0.1585 C.ar      1 <0>        -0.1233
     30 Cl2        17.5737   11.9560    1.2160 Cl        1 <0>        -0.0716
     31 N7         17.0007    4.4748   -1.5040 N.pl3     1 <0>        -0.8461
     32 N8         15.6898    3.6387    0.4219 N.2       1 <0>        -0.8072
     33 N9          5.8762    4.0271    6.8961 N.pl3     1 <0>        -0.8282
     34 N10         7.1510    0.1422    7.7130 N.2       1 <0>        -0.8038
     35 H1          4.9076   -2.1727    4.4958 H         1 <0>         0.1291
     36 H2          6.5580   -1.7324    8.4162 H         1 <0>         0.1531
     37 H3          7.2994   -4.0786    8.3626 H         1 <0>         0.1320
     38 H4          5.6564   -4.5166    4.4487 H         1 <0>         0.1328
     39 H5          7.6045    4.1879    4.8026 H         1 <0>         0.0674
     40 H6          8.5957    4.1156    6.2793 H         1 <0>         0.0692
     41 H7          9.9619    2.3071    5.2738 H         1 <0>         0.0740
     42 H8          8.9708    2.3794    3.7970 H         1 <0>         0.0721
     43 H9          9.6396    4.7438    3.4640 H         1 <0>         0.0668
     44 H10        10.6307    4.6715    4.9407 H         1 <0>         0.0673
     45 H11        11.9970    2.8630    3.9351 H         1 <0>         0.0690
     46 H12        11.0059    2.9353    2.4584 H         1 <0>         0.0684
     47 H13        11.6746    5.2997    2.1253 H         1 <0>         0.0691
     48 H14        12.6657    5.2274    3.6020 H         1 <0>         0.0695
     49 H15        14.0320    3.4189    2.5965 H         1 <0>         0.0696
     50 H16        13.0409    3.4912    1.1198 H         1 <0>         0.0694
     51 H17        15.8735    8.3337   -1.5110 H         1 <0>         0.1275
     52 H18        15.7646   10.5661   -0.4844 H         1 <0>         0.1336
     53 H19        19.5644    9.9274    1.3513 H         1 <0>         0.1352
     54 H20        19.6872    7.6877    0.3423 H         1 <0>         0.1333
     55 H21        16.2136    3.9099   -1.4556 H         1 <0>         0.4193
     56 H22        17.7725    4.1883   -2.0170 H         1 <0>         0.4218
     57 H23        16.5206    3.4341   -0.0350 H         1 <0>         0.3561
     58 H24         5.0926    4.2264    7.4318 H         1 <0>         0.4240
     59 H25         6.3864    4.7485    6.4958 H         1 <0>         0.4099
     60 H26         7.7093    0.8205    8.1243 H         1 <0>         0.3387
     61 H27         7.5958    1.5276    5.7510 H         1 <0>         0.4177
     62 H28        14.0408    6.0791    1.6481 H         1 <0>         0.4038
     63 H29        16.1217    6.7804    0.6196 H         1 <0>         0.4145
     64 H30         4.4480   -0.2091    6.0324 H         1 <0>         0.4141
@<TRIPOS>BOND
     1    1    6 ar
     2    1    2 ar
     3    1   35 1
     4    2    3 ar
     5    2    8 1
     6    3    4 ar
     7    3   36 1
     8    4    5 ar
     9    4   37 1
    10    5    6 ar
    11    5    7 1
    12    6   38 1
    13    8    9 1
    14    8   64 1
    15    9   10 1
    16    9   34 2
    17   10   11 2
    18   11   12 1
    19   11   33 1
    20   12   13 1
    21   12   61 1
    22   13   14 1
    23   13   39 1
    24   13   40 1
    25   14   15 1
    26   14   41 1
    27   14   42 1
    28   15   16 1
    29   15   43 1
    30   15   44 1
    31   16   17 1
    32   16   45 1
    33   16   46 1
    34   17   18 1
    35   17   47 1
    36   17   48 1
    37   18   19 1
    38   18   49 1
    39   18   50 1
    40   19   20 1
    41   19   62 1
    42   20   21 1
    43   20   32 2
    44   21   22 1
    45   21   63 1
    46   22   23 2
    47   22   31 1
    48   23   24 1
    49   24   29 ar
    50   24   25 ar
    51   25   26 ar
    52   25   51 1
    53   26   27 ar
    54   26   52 1
    55   27   28 ar
    56   27   30 1
    57   28   29 ar
    58   28   53 1
    59   29   54 1
    60   31   55 1
    61   31   56 1
    62   32   57 1
    63   33   58 1
    64   33   59 1
    65   34   60 1
@<TRIPOS>MOLECULE
ZINC14879972
   80    83     0     0     0
SMALL
USER_CHARGES

@<TRIPOS>ATOM
      1 C1          0.4191    2.7586   -0.3420 C.3       1 <0>        -0.1807
      2 C2         -0.1505    1.3938   -0.7345 C.3       1 <0>         0.0553
      3 C3          0.0499    0.4072    0.4176 C.3       1 <0>        -0.1797
      4 C4         -1.6445    1.5317   -1.0338 C.3       1 <0>        -0.1753
      5 N1          0.5448    0.8985   -1.9300 N.4       1 <0>        -0.4888
      6 C5          1.9793    0.7661   -1.6425 C.3       1 <0>        -0.0366
      7 C6          2.6926    0.2579   -2.8690 C.2       1 <0>         0.4877
      8 O1          2.0674    0.0286   -3.8828 O.2       1 <0>        -0.5190
      9 N2          4.0251    0.0583   -2.8393 N.am      1 <0>        -0.6193
     10 C7          4.6710   -0.5239   -3.9382 C.ar      1 <0>         0.0645
     11 C8          3.9626   -1.3439   -4.8027 C.ar      1 <0>        -0.1173
     12 C9          4.5944   -1.9218   -5.8990 C.ar      1 <0>         0.1577
     13 C10         5.9367   -1.6830   -6.1311 C.ar      1 <0>        -0.0379
     14 C11         6.6625   -0.8645   -5.2591 C.ar      1 <0>        -0.0663
     15 C12         6.0224   -0.2733   -4.1635 C.ar      1 <0>         0.1216
     16 O2          6.7164    0.5363   -3.3221 O.3       1 <0>        -0.4649
     17 C13         8.0971   -0.6434   -5.4971 C.2       1 <0>         0.3187
     18 O3          8.7443    0.3633   -4.8707 O.3       1 <0>        -0.6066
     19 C14         8.7784   -1.4761   -6.3678 C.2       1 <0>        -0.4678
     20 C15         8.0602   -2.6619   -6.9535 C.3       1 <0>         0.0099
     21 H1          8.0283   -3.4583   -6.2099 H         1 <0>         0.0367
     22 C16         6.6263   -2.2925   -7.3246 C.3       1 <0>        -0.0701
     23 C17         8.8056   -3.1682   -8.1910 C.3       1 <0>        -0.1020
     24 C18        10.2643   -3.3913   -7.8042 C.3       1 <0>        -0.0476
     25 H2         10.2813   -3.9383   -6.8616 H         1 <0>         0.0734
     26 C19        11.0067   -4.2166   -8.8369 C.3       1 <0>         0.0934
     27 H3         10.3992   -5.0823   -9.1010 H         1 <0>         0.0397
     28 C20        11.3048   -3.4338  -10.0805 C.2       1 <0>         0.3564
     29 O4         11.5633   -4.0973  -11.2171 O.3       1 <0>        -0.6251
     30 C21        11.3216   -2.0614  -10.0954 C.2       1 <0>        -0.5059
     31 C22        11.0136   -1.3057   -8.8823 C.2       1 <0>         0.3986
     32 O5         10.8172   -0.1089   -8.9328 O.2       1 <0>        -0.5196
     33 C23        10.9490   -2.0444   -7.5782 C.3       1 <0>         0.0793
     34 C24        10.1119   -1.2052   -6.6502 C.2       1 <0>         0.3832
     35 O6         10.6291   -0.2408   -6.1204 O.2       1 <0>        -0.4981
     36 O7         12.2627   -2.2393   -7.0507 O.3       1 <0>        -0.5090
     37 C25        11.6510   -1.3470  -11.3390 C.2       1 <0>         0.5855
     38 O8         11.9944   -1.9700  -12.3257 O.2       1 <0>        -0.5772
     39 N3         11.5722   -0.0023  -11.3848 N.am      1 <0>        -0.8797
     40 N4         12.2721   -4.6828   -8.2544 N.3       1 <0>        -0.5070
     41 C26        12.0293   -5.6090   -7.1404 C.3       1 <0>         0.0295
     42 C27        13.1260   -5.3017   -9.2771 C.3       1 <0>         0.0342
     43 N5          3.8710   -2.7463   -6.7680 N.pl3     1 <0>        -0.6779
     44 C28         3.1901   -2.1683   -7.9292 C.3       1 <0>         0.1190
     45 C29         3.7945   -4.1875   -6.5164 C.3       1 <0>         0.1194
     46 H4          1.4835    2.6603   -0.1288 H         1 <0>         0.0838
     47 H5          0.2763    3.4615   -1.1628 H         1 <0>         0.0844
     48 H6         -0.0968    3.1261    0.5450 H         1 <0>         0.1060
     49 H7         -0.4660    0.7747    1.3046 H         1 <0>         0.1059
     50 H8         -0.3558   -0.5651    0.1380 H         1 <0>         0.0835
     51 H9          1.1143    0.3089    0.6308 H         1 <0>         0.0833
     52 H10        -1.7873    2.2346   -1.8546 H         1 <0>         0.0834
     53 H11        -2.0503    0.5594   -1.3134 H         1 <0>         0.0829
     54 H12        -2.1604    1.8992   -0.1468 H         1 <0>         0.1058
     55 H13         0.1692   -0.0015   -2.1888 H         1 <0>         0.4330
     56 H14         2.3851    1.7384   -1.3630 H         1 <0>         0.1623
     57 H15         2.1221    0.0632   -0.8218 H         1 <0>         0.1620
     58 H16         4.5371    0.3177   -2.0573 H         1 <0>         0.4161
     59 H17         2.9148   -1.5353   -4.6240 H         1 <0>         0.1383
     60 H18         7.1298    0.0720   -2.5814 H         1 <0>         0.3803
     61 H19         6.0895   -3.1887   -7.6355 H         1 <0>         0.0686
     62 H20         6.6371   -1.5737   -8.1439 H         1 <0>         0.0753
     63 H21         8.3659   -4.1071   -8.5275 H         1 <0>         0.0571
     64 H22         8.7448   -2.4260   -8.9869 H         1 <0>         0.0673
     65 H23        12.7177   -1.4192   -6.8153 H         1 <0>         0.3654
     66 H24        11.3712    0.4995  -10.5794 H         1 <0>         0.4023
     67 H25        11.7165    0.4637  -12.2232 H         1 <0>         0.3686
     68 H26        11.5479   -6.5116   -7.5166 H         1 <0>         0.0097
     69 H27        12.9782   -5.8713   -6.6725 H         1 <0>         0.0591
     70 H28        11.3816   -5.1312   -6.4053 H         1 <0>         0.0687
     71 H29        13.4221   -4.5488  -10.0075 H         1 <0>         0.0813
     72 H30        14.0151   -5.7187   -8.8042 H         1 <0>         0.0471
     73 H31        12.5742   -6.0970   -9.7783 H         1 <0>         0.0196
     74 H32         3.8661   -2.1687   -8.7842 H         1 <0>         0.0384
     75 H33         2.3062   -2.7612   -8.1645 H         1 <0>         0.0520
     76 H34         2.8912   -1.1448   -7.7029 H         1 <0>         0.0508
     77 H35         2.9306   -4.4012   -5.8870 H         1 <0>         0.0251
     78 H36         3.6935   -4.7169   -7.4639 H         1 <0>         0.0572
     79 H37         4.7024   -4.5169   -6.0112 H         1 <0>         0.0570
     80 H38         0.4127    1.5492   -2.6897 H         1 <0>         0.4343
@<TRIPOS>BOND
     1    1    2 1
     2    1   46 1
     3    1   47 1
     4    1   48 1
     5    2    3 1
     6    2    4 1
     7    2    5 1
     8    3   49 1
     9    3   50 1
    10    3   51 1
    11    4   52 1
    12    4   53 1
    13    4   54 1
    14    5    6 1
    15    5   55 1
    16    5   80 1
    17    6    7 1
    18    6   56 1
    19    6   57 1
    20    7    8 2
    21    7    9 am
    22    9   10 1
    23    9   58 1
    24   10   15 ar
    25   10   11 ar
    26   11   12 ar
    27   11   59 1
    28   12   13 ar
    29   12   43 1
    30   13   22 1
    31   13   14 ar
    32   14   15 ar
    33   14   17 1
    34   15   16 1
    35   16   60 1
    36   17   18 1
    37   17   19 2
    38   19   34 1
    39   19   20 1
    40   20   21 1
    41   20   22 1
    42   20   23 1
    43   22   61 1
    44   22   62 1
    45   23   24 1
    46   23   63 1
    47   23   64 1
    48   24   25 1
    49   24   33 1
    50   24   26 1
    51   26   27 1
    52   26   28 1
    53   26   40 1
    54   28   29 1
    55   28   30 2
    56   30   31 1
    57   30   37 1
    58   31   32 2
    59   31   33 1
    60   33   34 1
    61   33   36 1
    62   34   35 2
    63   36   65 1
    64   37   38 2
    65   37   39 am
    66   39   66 1
    67   39   67 1
    68   40   41 1
    69   40   42 1
    70   41   68 1
    71   41   69 1
    72   41   70 1
    73   42   71 1
    74   42   72 1
    75   42   73 1
    76   43   44 1
    77   43   45 1
    78   44   74 1
    79   44   75 1
    80   44   76 1
    81   45   77 1
    82   45   78 1
    83   45   79 1
@<TRIPOS>MOLECULE
ZINC08101114
   80    82     0     0     0
SMALL
USER_CHARGES

@<TRIPOS>ATOM
      1 C1          1.6978    0.9935   -7.0826 C.3       1 <0>        -0.1819
      2 C2          0.6195    0.1395   -6.4124 C.3       1 <0>         0.0350
      3 H1          0.0273   -0.3636   -7.1768 H         1 <0>         0.1669
      4 C3          1.2826   -0.9045   -5.5117 C.3       1 <0>         0.0721
      5 H2          1.9005   -1.5674   -6.1174 H         1 <0>         0.1314
      6 C4          0.2031   -1.7228   -4.7984 C.3       1 <0>        -0.1858
      7 C5          0.8739   -2.7248   -3.8537 C.3       1 <0>        -0.1479
      8 C6          1.7697   -1.9632   -2.8719 C.3       1 <0>         0.0070
      9 H3          2.2937   -2.6727   -2.2314 H         1 <0>         0.1659
     10 C7          2.7886   -1.1356   -3.6596 C.3       1 <0>         0.2293
     11 H4          3.4263   -1.8015   -4.2409 H         1 <0>         0.1282
     12 O1          2.0993   -0.2466   -4.5409 O.3       1 <0>        -0.4055
     13 O2          3.5919   -0.3789   -2.7516 O.3       1 <0>        -0.3433
     14 C8          4.6221    0.3835   -3.3836 C.3       1 <0>         0.0719
     15 H5          4.3041    0.6610   -4.3886 H         1 <0>         0.1080
     16 C9          5.8993   -0.4548   -3.4661 C.3       1 <0>         0.0747
     17 H6          6.6851    0.1268   -3.9482 H         1 <0>         0.1160
     18 C10         6.3456   -0.8443   -2.0554 C.3       1 <0>        -0.1775
     19 C11         6.6177    0.4207   -1.2390 C.3       1 <0>         0.0262
     20 H7          7.4035    1.0023   -1.7211 H         1 <0>         0.1685
     21 C12         5.3404    1.2590   -1.1565 C.3       1 <0>         0.0848
     22 H8          5.5342    2.1602   -0.5749 H         1 <0>         0.1118
     23 C13         4.8941    1.6485   -2.5672 C.3       1 <0>         0.1059
     24 H9          5.6799    2.2301   -3.0493 H         1 <0>         0.1040
     25 O3          3.7011    2.4315   -2.4902 O.3       1 <0>        -0.5266
     26 O4          4.3102    0.4965   -0.5245 O.3       1 <0>        -0.3445
     27 C14         3.6456    1.1849    0.5368 C.3       1 <0>         0.2180
     28 H10         4.3821    1.7008    1.1528 H         1 <0>         0.0810
     29 C15         2.8768    0.1778    1.3960 C.3       1 <0>         0.0766
     30 H11         3.5772   -0.5228    1.8506 H         1 <0>         0.1140
     31 C16         2.1189    0.9293    2.4947 C.3       1 <0>         0.0432
     32 H12         2.8302    1.4342    3.1484 H         1 <0>         0.1676
     33 C17         1.1951    1.9647    1.8459 C.3       1 <0>         0.0833
     34 C18         2.0289    2.9028    0.9693 C.3       1 <0>         0.0426
     35 O5          2.7319    2.1372   -0.0114 O.3       1 <0>        -0.3453
     36 C19         0.1528    1.2504    0.9831 C.3       1 <0>        -0.1876
     37 O6          0.5367    2.7215    2.8636 O.3       1 <0>        -0.5506
     38 N1          1.3200   -0.0216    3.2792 N.4       1 <0>        -0.5013
     39 C20         2.2154   -0.9455    3.9882 C.3       1 <0>        -0.0566
     40 O7          1.9489   -0.5377    0.5780 O.3       1 <0>        -0.5605
     41 N2          7.0462    0.0467    0.1154 N.4       1 <0>        -0.6358
     42 N3          5.6381   -1.6694   -4.2500 N.3       1 <0>        -0.8347
     43 N4          0.9451   -1.0718   -2.0452 N.4       1 <0>        -0.6353
     44 N5         -0.2541    1.0001   -5.6036 N.4       1 <0>        -0.5096
     45 C21        -0.9695    1.9352   -6.4821 C.3       1 <0>        -0.0581
     46 H13         2.2141    1.5855   -6.3269 H         1 <0>         0.0846
     47 H14         2.4134    0.3446   -7.5874 H         1 <0>         0.1121
     48 H15         1.2338    1.6587   -7.8108 H         1 <0>         0.0961
     49 H16        -0.4402   -1.0557   -4.2247 H         1 <0>         0.0625
     50 H17        -0.3932   -2.2604   -5.5357 H         1 <0>         0.1356
     51 H18         0.1103   -3.2724   -3.3012 H         1 <0>         0.1215
     52 H19         1.4784   -3.4232   -4.4324 H         1 <0>         0.1348
     53 H20         5.5598   -1.4259   -1.5733 H         1 <0>         0.0989
     54 H21         7.2556   -1.4415   -2.1142 H         1 <0>         0.1038
     55 H22         3.3217    2.6558   -3.3509 H         1 <0>         0.3884
     56 H23         1.3712    3.6152    0.4713 H         1 <0>         0.1327
     57 H24         2.7441    3.4413    1.5910 H         1 <0>         0.0837
     58 H25        -0.2942    0.4359    1.5531 H         1 <0>         0.0613
     59 H26        -0.6231    1.9578    0.6905 H         1 <0>         0.0896
     60 H27         0.6333    0.8486    0.0910 H         1 <0>         0.0885
     61 H28        -0.0655    3.3974    2.5236 H         1 <0>         0.4193
     62 H29         0.7586    0.4829    3.9488 H         1 <0>         0.4509
     63 H30         2.8219   -1.4905    3.2648 H         1 <0>         0.1170
     64 H31         2.8662   -0.3804    4.6555 H         1 <0>         0.1328
     65 H32         1.6226   -1.6511    4.5702 H         1 <0>         0.1426
     66 H33         2.3650   -1.1336   -0.0599 H         1 <0>         0.3866
     67 H34         7.8885   -0.5061    0.0610 H         1 <0>         0.4517
     68 H35         7.2256    0.8810    0.6538 H         1 <0>         0.4414
     69 H36         6.4924   -2.1765   -4.4265 H         1 <0>         0.3714
     70 H37         0.3294   -1.6234   -1.4668 H         1 <0>         0.4407
     71 H38         1.5427   -0.5087   -1.4587 H         1 <0>         0.4387
     72 H39        -0.9209    0.4294   -5.1058 H         1 <0>         0.4194
     73 H40        -1.6178    2.5737   -5.8819 H         1 <0>         0.1345
     74 H41        -0.2493    2.5517   -7.0199 H         1 <0>         0.1338
     75 H42        -1.5723    1.3741   -7.1961 H         1 <0>         0.1342
     76 H43         0.3038    1.5195   -4.9426 H         1 <0>         0.4255
     77 H44         6.3188   -0.4917    0.5617 H         1 <0>         0.4291
     78 H45         0.3970   -0.4708   -2.6423 H         1 <0>         0.4248
     79 H46         0.7176   -0.5446    2.6615 H         1 <0>         0.4306
     80 H47         4.9574   -2.2563   -3.7914 H         1 <0>         0.3351
@<TRIPOS>BOND
     1    1    2 1
     2    1   46 1
     3    1   47 1
     4    1   48 1
     5    2    3 1
     6    2    4 1
     7    2   44 1
     8    4    5 1
     9    4   12 1
    10    4    6 1
    11    6    7 1
    12    6   49 1
    13    6   50 1
    14    7    8 1
    15    7   51 1
    16    7   52 1
    17    8    9 1
    18    8   10 1
    19    8   43 1
    20   10   11 1
    21   10   12 1
    22   10   13 1
    23   13   14 1
    24   14   15 1
    25   14   23 1
    26   14   16 1
    27   16   17 1
    28   16   18 1
    29   16   42 1
    30   18   19 1
    31   18   53 1
    32   18   54 1
    33   19   20 1
    34   19   21 1
    35   19   41 1
    36   21   22 1
    37   21   23 1
    38   21   26 1
    39   23   24 1
    40   23   25 1
    41   25   55 1
    42   26   27 1
    43   27   28 1
    44   27   35 1
    45   27   29 1
    46   29   30 1
    47   29   31 1
    48   29   40 1
    49   31   32 1
    50   31   33 1
    51   31   38 1
    52   33   34 1
    53   33   36 1
    54   33   37 1
    55   34   35 1
    56   34   56 1
    57   34   57 1
    58   36   58 1
    59   36   59 1
    60   36   60 1
    61   37   61 1
    62   38   39 1
    63   38   62 1
    64   38   79 1
    65   39   63 1
    66   39   64 1
    67   39   65 1
    68   40   66 1
    69   41   67 1
    70   41   68 1
    71   41   77 1
    72   42   69 1
    73   42   80 1
    74   43   70 1
    75   43   71 1
    76   43   78 1
    77   44   45 1
    78   44   72 1
    79   44   76 1
    80   45   73 1
    81   45   74 1
    82   45   75 1
@<TRIPOS>MOLECULE
ZINC08101115
   80    82     0     0     0
SMALL
USER_CHARGES

@<TRIPOS>ATOM
      1 C1          1.6352   -4.3188    2.5787 C.3       1 <0>        -0.1903
      2 C2          1.6973   -4.0622    4.0857 C.3       1 <0>         0.0325
      3 H1          0.7294   -4.2886    4.5330 H         1 <0>         0.1647
      4 C3          2.0454   -2.5940    4.3392 C.3       1 <0>         0.0724
      5 H2          2.1155   -2.4171    5.4124 H         1 <0>         0.1094
      6 C4          0.9536   -1.7005    3.7447 C.3       1 <0>        -0.1699
      7 C5          1.3389   -0.2322    3.9493 C.3       1 <0>        -0.1506
      8 C6          2.7079    0.0190    3.3098 C.3       1 <0>         0.0099
      9 H3          3.0150    1.0477    3.4986 H         1 <0>         0.1625
     10 C7          3.7319   -0.9410    3.9210 C.3       1 <0>         0.2309
     11 H4          3.8242   -0.7423    4.9888 H         1 <0>         0.1241
     12 O1          3.2979   -2.2880    3.7229 O.3       1 <0>        -0.4082
     13 O2          4.9996   -0.7508    3.2896 O.3       1 <0>        -0.3409
     14 C8          6.0471   -1.5553    3.8349 C.3       1 <0>         0.0733
     15 H5          5.6240   -2.4698    4.2505 H         1 <0>         0.1001
     16 C9          6.7650   -0.7776    4.9397 C.3       1 <0>         0.0744
     17 H6          7.5641   -1.3913    5.3557 H         1 <0>         0.1155
     18 C10         7.3590    0.5061    4.3564 C.3       1 <0>        -0.1777
     19 C11         8.3566    0.1506    3.2521 C.3       1 <0>         0.0266
     20 H7          9.1556   -0.4631    3.6681 H         1 <0>         0.1680
     21 C12         7.6386   -0.6272    2.1473 C.3       1 <0>         0.0843
     22 H8          8.3493   -0.8805    1.3606 H         1 <0>         0.1121
     23 C13         7.0447   -1.9109    2.7307 C.3       1 <0>         0.1041
     24 H9          7.8437   -2.5245    3.1467 H         1 <0>         0.1028
     25 O3          6.3742   -2.6373    1.6988 O.3       1 <0>        -0.5232
     26 O4          6.5911    0.1774    1.6020 O.3       1 <0>        -0.3447
     27 C14         6.5954    0.2478    0.1747 C.3       1 <0>         0.2180
     28 H10         7.6171    0.3849   -0.1794 H         1 <0>         0.0810
     29 C15         5.7345    1.4290   -0.2807 C.3       1 <0>         0.0760
     30 H11         6.1644    2.3584    0.0925 H         1 <0>         0.1138
     31 C16         5.6951    1.4617   -1.8117 C.3       1 <0>         0.0436
     32 H12         6.7005    1.6273   -2.1988 H         1 <0>         0.1674
     33 C17         5.1621    0.1211   -2.3265 C.3       1 <0>         0.0833
     34 C18         6.0452   -1.0095   -1.7921 C.3       1 <0>         0.0430
     35 O5          6.0629   -0.9640   -0.3639 O.3       1 <0>        -0.3444
     36 C19         3.7254   -0.0787   -1.8399 C.3       1 <0>        -0.1878
     37 O6          5.1891    0.1134   -3.7553 O.3       1 <0>        -0.5511
     38 N1          4.8119    2.5476   -2.2574 N.4       1 <0>        -0.5015
     39 C20         5.3840    3.8399   -1.8565 C.3       1 <0>        -0.0563
     40 O7          4.4081    1.2777    0.2291 O.3       1 <0>        -0.5593
     41 N2          8.9268    1.3831    2.6920 N.4       1 <0>        -0.6358
     42 N3          5.8072   -0.4362    6.0000 N.3       1 <0>        -0.8369
     43 N4          2.6224   -0.2098    1.8612 N.4       1 <0>        -0.6356
     44 N5          2.7271   -4.9204    4.6865 N.4       1 <0>        -0.5054
     45 C21         2.3201   -6.3272    4.5718 C.3       1 <0>        -0.0568
     46 H13         2.5858   -4.0410    2.1234 H         1 <0>         0.0868
     47 H14         1.4409   -5.3760    2.3978 H         1 <0>         0.0979
     48 H15         0.8347   -3.7222    2.1412 H         1 <0>         0.1049
     49 H16         0.8550   -1.9061    2.6788 H         1 <0>         0.0862
     50 H17         0.0061   -1.9016    4.2446 H         1 <0>         0.1287
     51 H18         0.5936    0.4093    3.4791 H         1 <0>         0.1211
     52 H19         1.3892   -0.0136    5.0160 H         1 <0>         0.1292
     53 H20         6.5600    1.1198    3.9404 H         1 <0>         0.0998
     54 H21         7.8704    1.0602    5.1434 H         1 <0>         0.1040
     55 H22         5.9128   -3.4279    2.0105 H         1 <0>         0.3873
     56 H23         5.6455   -1.9690   -2.1202 H         1 <0>         0.1334
     57 H24         7.0596   -0.8890   -2.1721 H         1 <0>         0.0833
     58 H25         3.1477    0.8256   -2.0316 H         1 <0>         0.0612
     59 H26         3.2750   -0.9170   -2.3715 H         1 <0>         0.0910
     60 H27         3.7298   -0.2870   -0.7701 H         1 <0>         0.0886
     61 H28         4.8645   -0.7073   -4.1504 H         1 <0>         0.4196
     62 H29         4.7217    2.5169   -3.2619 H         1 <0>         0.4510
     63 H30         5.4814    3.8731   -0.7714 H         1 <0>         0.1168
     64 H31         6.3663    3.9598   -2.3134 H         1 <0>         0.1324
     65 H32         4.7286    4.6456   -2.1873 H         1 <0>         0.1425
     66 H33         4.3429    1.3705    1.1894 H         1 <0>         0.3865
     67 H34         9.4003    1.8960    3.4206 H         1 <0>         0.4517
     68 H35         9.5847    1.1486    1.9638 H         1 <0>         0.4417
     69 H36         6.2762   -0.0207    6.7908 H         1 <0>         0.3714
     70 H37         1.9893    0.4607    1.4516 H         1 <0>         0.4395
     71 H38         3.5374   -0.1036    1.4493 H         1 <0>         0.4354
     72 H39         3.6026   -4.7832    4.2042 H         1 <0>         0.4274
     73 H40         3.0842   -6.9640    5.0177 H         1 <0>         0.1367
     74 H41         1.3742   -6.4755    5.0929 H         1 <0>         0.1327
     75 H42         2.1999   -6.5861    3.5199 H         1 <0>         0.1290
     76 H43         2.8384   -4.6808    5.6603 H         1 <0>         0.4337
     77 H44         8.1872    1.9512    2.3069 H         1 <0>         0.4297
     78 H45         2.2818   -1.1435    1.6877 H         1 <0>         0.4342
     79 H46         3.9026    2.4366   -1.8345 H         1 <0>         0.4312
     80 H47         5.0816    0.1711    5.6498 H         1 <0>         0.3366
@<TRIPOS>BOND
     1    1    2 1
     2    1   46 1
     3    1   47 1
     4    1   48 1
     5    2    3 1
     6    2    4 1
     7    2   44 1
     8    4    5 1
     9    4   12 1
    10    4    6 1
    11    6    7 1
    12    6   49 1
    13    6   50 1
    14    7    8 1
    15    7   51 1
    16    7   52 1
    17    8    9 1
    18    8   10 1
    19    8   43 1
    20   10   11 1
    21   10   12 1
    22   10   13 1
    23   13   14 1
    24   14   15 1
    25   14   23 1
    26   14   16 1
    27   16   17 1
    28   16   18 1
    29   16   42 1
    30   18   19 1
    31   18   53 1
    32   18   54 1
    33   19   20 1
    34   19   21 1
    35   19   41 1
    36   21   22 1
    37   21   23 1
    38   21   26 1
    39   23   24 1
    40   23   25 1
    41   25   55 1
    42   26   27 1
    43   27   28 1
    44   27   35 1
    45   27   29 1
    46   29   30 1
    47   29   31 1
    48   29   40 1
    49   31   32 1
    50   31   33 1
    51   31   38 1
    52   33   34 1
    53   33   36 1
    54   33   37 1
    55   34   35 1
    56   34   56 1
    57   34   57 1
    58   36   58 1
    59   36   59 1
    60   36   60 1
    61   37   61 1
    62   38   39 1
    63   38   62 1
    64   38   79 1
    65   39   63 1
    66   39   64 1
    67   39   65 1
    68   40   66 1
    69   41   67 1
    70   41   68 1
    71   41   77 1
    72   42   69 1
    73   42   80 1
    74   43   70 1
    75   43   71 1
    76   43   78 1
    77   44   45 1
    78   44   72 1
    79   44   76 1
    80   45   73 1
    81   45   74 1
    82   45   75 1
@<TRIPOS>MOLECULE
ZINC14438802
   19    19     0     0     0
SMALL
USER_CHARGES

@<TRIPOS>ATOM
      1 C1         -0.0187    1.5258    0.0104 C.3       1 <0>         0.0465
      2 C2          0.0021   -0.0041    0.0020 C.3       1 <0>         0.1216
      3 H1          0.6044   -0.3639    0.8362 H         1 <0>         0.1077
      4 C3         -1.4266   -0.5342    0.1385 C.3       1 <0>         0.0418
      5 H2         -2.0376   -0.1811   -0.6922 H         1 <0>         0.1072
      6 C4         -1.4185   -2.0447    0.1729 C.2       1 <0>         0.2584
      7 O1         -0.9696   -2.8721   -0.7958 O.3       1 <0>        -0.6328
      8 C5         -1.9467   -2.4050    1.3588 C.2       1 <0>        -0.3263
      9 C6         -2.3003   -1.2016    2.1028 C.2       1 <0>         0.4773
     10 O2         -1.9927   -0.1070    1.3815 O.3       1 <0>        -0.3344
     11 O3         -2.7995   -1.1886    3.2123 O.2       1 <0>        -0.5356
     12 O4         -2.1222   -3.6850    1.7922 O.3       1 <0>        -0.4615
     13 O5          0.5662   -0.4660   -1.2270 O.3       1 <0>        -0.5236
     14 O6          1.3220    2.0204    0.0003 O.3       1 <0>        -0.5642
     15 H3         -0.5459    1.8868   -0.8726 H         1 <0>         0.0484
     16 H4         -0.5289    1.8773    0.9072 H         1 <0>         0.0636
     17 H5          0.0804   -0.1829   -2.0137 H         1 <0>         0.3689
     18 H6          1.3852    2.9853    0.0049 H         1 <0>         0.3736
     19 H7         -2.5173   -3.7516    2.6723 H         1 <0>         0.3633
@<TRIPOS>BOND
     1    1    2 1
     2    1   14 1
     3    1   15 1
     4    1   16 1
     5    2    3 1
     6    2   13 1
     7    2    4 1
     8    4   10 1
     9    4    5 1
    10    4    6 1
    11    6    7 1
    12    6    8 2
    13    8   12 1
    14    8    9 1
    15    9   11 2
    16    9   10 1
    17   12   19 1
    18   13   17 1
    19   14   18 1
@<TRIPOS>MOLECULE
ZINC08101116
   80    82     0     0     0
SMALL
USER_CHARGES

@<TRIPOS>ATOM
      1 C1          5.7650    3.1146   -0.7744 C.3       1 <0>        -0.1880
      2 C2          4.7346    2.2933    0.0033 C.3       1 <0>         0.0312
      3 H1          3.8563    2.9072    0.2028 H         1 <0>         0.1586
      4 C3          4.3263    1.0724   -0.8236 C.3       1 <0>         0.0522
      5 H2          3.6789    0.4295   -0.2273 H         1 <0>         0.1130
      6 C4          3.5758    1.5321   -2.0763 C.3       1 <0>        -0.1402
      7 C5          3.2234    0.3090   -2.9284 C.3       1 <0>        -0.1538
      8 C6          4.5093   -0.4511   -3.2674 C.3       1 <0>         0.0033
      9 H3          5.1605    0.1842   -3.8677 H         1 <0>         0.1734
     10 C7          5.2238   -0.8342   -1.9687 C.3       1 <0>         0.2276
     11 H4          6.1612   -1.3379   -2.2045 H         1 <0>         0.1481
     12 O1          5.4948    0.3458   -1.2095 O.3       1 <0>        -0.3627
     13 O2          4.3906   -1.7101   -1.2069 O.3       1 <0>        -0.3774
     14 C8          5.0016   -2.2000   -0.0116 C.3       1 <0>         0.0686
     15 H5          5.7127   -1.4629    0.3614 H         1 <0>         0.1002
     16 C9          5.7347   -3.5087   -0.3130 C.3       1 <0>         0.0744
     17 H6          6.2008   -3.8824    0.5987 H         1 <0>         0.1195
     18 C10         4.7366   -4.5434   -0.8365 C.3       1 <0>        -0.1759
     19 C11         3.6597   -4.7939    0.2211 C.3       1 <0>         0.0292
     20 H7          4.1258   -5.1676    1.1328 H         1 <0>         0.1701
     21 C12         2.9267   -3.4852    0.5225 C.3       1 <0>         0.0859
     22 H8          2.1595   -3.6636    1.2759 H         1 <0>         0.1131
     23 C13         3.9248   -2.4505    1.0460 C.3       1 <0>         0.0990
     24 H9          4.3909   -2.8241    1.9577 H         1 <0>         0.1071
     25 O3          3.2401   -1.2282    1.3275 O.3       1 <0>        -0.5151
     26 O4          2.3156   -2.9953   -0.6728 O.3       1 <0>        -0.3488
     27 C14         0.9664   -2.5580   -0.4987 C.3       1 <0>         0.2252
     28 H10         0.4455   -3.2434    0.1699 H         1 <0>         0.0802
     29 C15         0.2588   -2.5323   -1.8560 C.3       1 <0>         0.0658
     30 H11         0.2237   -3.5410   -2.2676 H         1 <0>         0.1076
     31 C16        -1.1674   -2.0055   -1.6697 C.3       1 <0>         0.0456
     32 H12        -1.7265   -2.6860   -1.0274 H         1 <0>         0.1646
     33 C17        -1.1073   -0.6201   -1.0192 C.3       1 <0>         0.0830
     34 C18        -0.3470   -0.7196    0.3059 C.3       1 <0>         0.0453
     35 O5          0.9600   -1.2451    0.0655 O.3       1 <0>        -0.3423
     36 C19        -0.3830    0.3520   -1.9525 C.3       1 <0>        -0.1991
     37 O6         -2.4342   -0.1496   -0.7742 O.3       1 <0>        -0.5530
     38 N1         -1.8300   -1.9081   -2.9772 N.4       1 <0>        -0.5019
     39 C20        -1.9848   -3.2524   -3.5491 C.3       1 <0>        -0.0553
     40 O7          0.9723   -1.6762   -2.7504 O.3       1 <0>        -0.5333
     41 N2          2.7014   -5.7874   -0.2816 N.4       1 <0>        -0.6357
     42 N3          6.7686   -3.2682   -1.3284 N.3       1 <0>        -0.8294
     43 N4          4.1767   -1.6662   -4.0229 N.4       1 <0>        -0.6341
     44 N5          5.3210    1.8495    1.2749 N.4       1 <0>        -0.5072
     45 C21         5.5994    3.0183    2.1201 C.3       1 <0>        -0.0572
     46 H13         6.6753    2.5287   -0.9018 H         1 <0>         0.0926
     47 H14         5.3598    3.3737   -1.7525 H         1 <0>         0.1076
     48 H15         5.9940    4.0264   -0.2228 H         1 <0>         0.0950
     49 H16         2.6613    2.0482   -1.7841 H         1 <0>         0.1094
     50 H17         4.2081    2.2075   -2.6525 H         1 <0>         0.1015
     51 H18         2.5509   -0.3427   -2.3705 H         1 <0>         0.1176
     52 H19         2.7382    0.6335   -3.8490 H         1 <0>         0.1074
     53 H20         4.2705   -4.1698   -1.7482 H         1 <0>         0.0902
     54 H21         5.2588   -5.4758   -1.0512 H         1 <0>         0.1071
     55 H22         3.8206   -0.5085    1.6108 H         1 <0>         0.3660
     56 H23        -0.2639    0.2711    0.7526 H         1 <0>         0.1302
     57 H24        -0.8852   -1.3808    0.9850 H         1 <0>         0.0808
     58 H25        -0.8567    0.3345   -2.9340 H         1 <0>         0.0600
     59 H26        -0.4373    1.3598   -1.5408 H         1 <0>         0.0852
     60 H27         0.6613    0.0543   -2.0478 H         1 <0>         0.1116
     61 H28        -2.4718    0.7245   -0.3624 H         1 <0>         0.4185
     62 H29        -2.7387   -1.4846   -2.8630 H         1 <0>         0.4510
     63 H30        -1.0032   -3.7099   -3.6724 H         1 <0>         0.1147
     64 H31        -2.5895   -3.8645   -2.8800 H         1 <0>         0.1319
     65 H32        -2.4764   -3.1801   -4.5192 H         1 <0>         0.1422
     66 H33         1.8503   -2.0026   -2.9909 H         1 <0>         0.3722
     67 H34         3.1848   -6.6504   -0.4803 H         1 <0>         0.4522
     68 H35         1.9912   -5.9526    0.4159 H         1 <0>         0.4435
     69 H36         7.3587   -4.0787   -1.4426 H         1 <0>         0.3751
     70 H37         3.6280   -1.4190   -4.8328 H         1 <0>         0.4486
     71 H38         5.0271   -2.1215   -4.3190 H         1 <0>         0.4458
     72 H39         4.6731    1.2384    1.7490 H         1 <0>         0.4160
     73 H40         6.0345    2.6890    3.0637 H         1 <0>         0.1368
     74 H41         6.2994    3.6785    1.6080 H         1 <0>         0.1342
     75 H42         4.6709    3.5547    2.3157 H         1 <0>         0.1310
     76 H43         6.1805    1.3530    1.0939 H         1 <0>         0.4327
     77 H44         2.2699   -5.4415   -1.1255 H         1 <0>         0.4289
     78 H45         3.6466   -2.2927   -3.4360 H         1 <0>         0.4231
     79 H46        -1.2703   -1.3415   -3.5965 H         1 <0>         0.4329
     80 H47         6.3555   -2.9950   -2.2074 H         1 <0>         0.3253
@<TRIPOS>BOND
     1    1    2 1
     2    1   46 1
     3    1   47 1
     4    1   48 1
     5    2    3 1
     6    2    4 1
     7    2   44 1
     8    4    5 1
     9    4   12 1
    10    4    6 1
    11    6    7 1
    12    6   49 1
    13    6   50 1
    14    7    8 1
    15    7   51 1
    16    7   52 1
    17    8    9 1
    18    8   10 1
    19    8   43 1
    20   10   11 1
    21   10   12 1
    22   10   13 1
    23   13   14 1
    24   14   15 1
    25   14   23 1
    26   14   16 1
    27   16   17 1
    28   16   18 1
    29   16   42 1
    30   18   19 1
    31   18   53 1
    32   18   54 1
    33   19   20 1
    34   19   21 1
    35   19   41 1
    36   21   22 1
    37   21   23 1
    38   21   26 1
    39   23   24 1
    40   23   25 1
    41   25   55 1
    42   26   27 1
    43   27   28 1
    44   27   35 1
    45   27   29 1
    46   29   30 1
    47   29   31 1
    48   29   40 1
    49   31   32 1
    50   31   33 1
    51   31   38 1
    52   33   34 1
    53   33   36 1
    54   33   37 1
    55   34   35 1
    56   34   56 1
    57   34   57 1
    58   36   58 1
    59   36   59 1
    60   36   60 1
    61   37   61 1
    62   38   39 1
    63   38   62 1
    64   38   79 1
    65   39   63 1
    66   39   64 1
    67   39   65 1
    68   40   66 1
    69   41   67 1
    70   41   68 1
    71   41   77 1
    72   42   69 1
    73   42   80 1
    74   43   70 1
    75   43   71 1
    76   43   78 1
    77   44   45 1
    78   44   72 1
    79   44   76 1
    80   45   73 1
    81   45   74 1
    82   45   75 1
@<TRIPOS>MOLECULE
ZINC08101117
   80    82     0     0     0
SMALL
USER_CHARGES

@<TRIPOS>ATOM
      1 C1          4.4939    3.9830   -1.4893 C.3       1 <0>        -0.1882
      2 C2          5.0135    2.5571   -1.2950 C.3       1 <0>         0.0352
      3 H1          4.8043    1.9692   -2.1887 H         1 <0>         0.1572
      4 C3          4.3170    1.9202   -0.0908 C.3       1 <0>         0.0493
      5 H2          3.2405    1.9031   -0.2607 H         1 <0>         0.1376
      6 C4          4.8271    0.4889    0.0959 C.3       1 <0>        -0.1565
      7 C5          4.1704   -0.1210    1.3381 C.3       1 <0>        -0.1559
      8 C6          4.4724    0.7664    2.5495 C.3       1 <0>         0.0013
      9 H3          5.5475    0.7850    2.7284 H         1 <0>         0.1699
     10 C7          3.9760    2.1870    2.2681 C.3       1 <0>         0.2277
     11 H4          4.2265    2.8330    3.1095 H         1 <0>         0.1478
     12 O1          4.6022    2.6833    1.0833 O.3       1 <0>        -0.3663
     13 O2          2.5587    2.1693    2.0864 O.3       1 <0>        -0.3762
     14 C8          1.9778    3.4643    1.9200 C.3       1 <0>         0.0699
     15 H5          2.7067    4.1334    1.4628 H         1 <0>         0.1078
     16 C9          1.5642    4.0169    3.2854 C.3       1 <0>         0.0737
     17 H6          1.1211    5.0047    3.1585 H         1 <0>         0.1197
     18 C10         0.5410    3.0776    3.9271 C.3       1 <0>        -0.1746
     19 C11        -0.6904    2.9722    3.0253 C.3       1 <0>         0.0290
     20 H7         -1.1335    3.9599    2.8983 H         1 <0>         0.1700
     21 C12        -0.2768    2.4195    1.6598 C.3       1 <0>         0.0855
     22 H8         -1.1541    2.3443    1.0174 H         1 <0>         0.1119
     23 C13         0.7464    3.3588    1.0181 C.3       1 <0>         0.1031
     24 H9          0.3033    4.3465    0.8912 H         1 <0>         0.1039
     25 O3          1.1327    2.8426   -0.2571 O.3       1 <0>        -0.5228
     26 O4          0.3041    1.1245    1.8262 O.3       1 <0>        -0.3505
     27 C14        -0.1595    0.1543    0.8851 C.3       1 <0>         0.2254
     28 H10        -1.2327    0.2746    0.7377 H         1 <0>         0.0797
     29 C15         0.1282   -1.2518    1.4178 C.3       1 <0>         0.0662
     30 H11        -0.4217   -1.4094    2.3457 H         1 <0>         0.1077
     31 C16        -0.3166   -2.2844    0.3775 C.3       1 <0>         0.0454
     32 H12        -1.3937   -2.2104    0.2277 H         1 <0>         0.1649
     33 C17         0.4051   -2.0047   -0.9443 C.3       1 <0>         0.0831
     34 C18         0.1067   -0.5695   -1.3858 C.3       1 <0>         0.0446
     35 O5          0.5162    0.3379   -0.3606 O.3       1 <0>        -0.3389
     36 C19         1.9129   -2.1769   -0.7501 C.3       1 <0>        -0.1983
     37 O6         -0.0563   -2.9171   -1.9427 O.3       1 <0>        -0.5532
     38 N1          0.0224   -3.6340    0.8485 N.4       1 <0>        -0.5018
     39 C20        -0.7552   -3.9407    2.0565 C.3       1 <0>        -0.0554
     40 O7          1.5289   -1.3922    1.6632 O.3       1 <0>        -0.5351
     41 N2         -1.6728    2.0703    3.6414 N.4       1 <0>        -0.6356
     42 N3          2.7465    4.1182    4.1513 N.3       1 <0>        -0.8288
     43 N4          3.7869    0.2310    3.7333 N.4       1 <0>        -0.6337
     44 N5          6.4632    2.5921   -1.0601 N.4       1 <0>        -0.5089
     45 C21         7.1424    3.0899   -2.2638 C.3       1 <0>        -0.0575
     46 H13         4.6562    4.5564   -0.5767 H         1 <0>         0.0920
     47 H14         5.0273    4.4548   -2.3146 H         1 <0>         0.0980
     48 H15         3.4279    3.9536   -1.7152 H         1 <0>         0.1015
     49 H16         4.5713   -0.1062   -0.7808 H         1 <0>         0.1151
     50 H17         5.9094    0.5019    0.2252 H         1 <0>         0.0805
     51 H18         3.0923   -0.1798    1.1889 H         1 <0>         0.1241
     52 H19         4.5711   -1.1201    1.5090 H         1 <0>         0.1075
     53 H20         0.9841    2.0899    4.0540 H         1 <0>         0.0885
     54 H21         0.2463    3.4714    4.8998 H         1 <0>         0.1056
     55 H22         1.8240    3.3566   -0.6965 H         1 <0>         0.3832
     56 H23         0.6521   -0.3508   -2.3039 H         1 <0>         0.1304
     57 H24        -0.9630   -0.4587   -1.5631 H         1 <0>         0.0809
     58 H25         2.1139   -3.1566   -0.3167 H         1 <0>         0.0590
     59 H26         2.4150   -2.0961   -1.7141 H         1 <0>         0.0844
     60 H27         2.2840   -1.4006   -0.0809 H         1 <0>         0.1109
     61 H28         0.3595   -2.7971   -2.8075 H         1 <0>         0.4183
     62 H29        -0.1957   -4.3062    0.1283 H         1 <0>         0.4507
     63 H30        -0.5196   -3.2145    2.8344 H         1 <0>         0.1149
     64 H31        -1.8193   -3.8932    1.8253 H         1 <0>         0.1321
     65 H32        -0.5036   -4.9421    2.4059 H         1 <0>         0.1417
     66 H33         1.8599   -0.8367    2.3822 H         1 <0>         0.3727
     67 H34        -1.9456    2.4348    4.5418 H         1 <0>         0.4513
     68 H35        -2.4849    2.0008    3.0466 H         1 <0>         0.4434
     69 H36         2.5269    4.6042    5.0078 H         1 <0>         0.3741
     70 H37         4.0478   -0.7348    3.8649 H         1 <0>         0.4482
     71 H38         4.0536    0.7653    4.5467 H         1 <0>         0.4465
     72 H39         6.6635    3.2042   -0.2835 H         1 <0>         0.4344
     73 H40         8.2181    3.1158   -2.0896 H         1 <0>         0.1368
     74 H41         6.9261    2.4286   -3.1028 H         1 <0>         0.1294
     75 H42         6.7870    4.0947   -2.4922 H         1 <0>         0.1318
     76 H43         6.7922    1.6619   -0.8488 H         1 <0>         0.4241
     77 H44        -1.2626    1.1560    3.7589 H         1 <0>         0.4284
     78 H45         2.7886    0.2948    3.6015 H         1 <0>         0.4255
     79 H46         1.0075   -3.6779    1.0624 H         1 <0>         0.4320
     80 H47         3.1341    3.2064    4.3421 H         1 <0>         0.3226
@<TRIPOS>BOND
     1    1    2 1
     2    1   46 1
     3    1   47 1
     4    1   48 1
     5    2    3 1
     6    2    4 1
     7    2   44 1
     8    4    5 1
     9    4   12 1
    10    4    6 1
    11    6    7 1
    12    6   49 1
    13    6   50 1
    14    7    8 1
    15    7   51 1
    16    7   52 1
    17    8    9 1
    18    8   10 1
    19    8   43 1
    20   10   11 1
    21   10   12 1
    22   10   13 1
    23   13   14 1
    24   14   15 1
    25   14   23 1
    26   14   16 1
    27   16   17 1
    28   16   18 1
    29   16   42 1
    30   18   19 1
    31   18   53 1
    32   18   54 1
    33   19   20 1
    34   19   21 1
    35   19   41 1
    36   21   22 1
    37   21   23 1
    38   21   26 1
    39   23   24 1
    40   23   25 1
    41   25   55 1
    42   26   27 1
    43   27   28 1
    44   27   35 1
    45   27   29 1
    46   29   30 1
    47   29   31 1
    48   29   40 1
    49   31   32 1
    50   31   33 1
    51   31   38 1
    52   33   34 1
    53   33   36 1
    54   33   37 1
    55   34   35 1
    56   34   56 1
    57   34   57 1
    58   36   58 1
    59   36   59 1
    60   36   60 1
    61   37   61 1
    62   38   39 1
    63   38   62 1
    64   38   79 1
    65   39   63 1
    66   39   64 1
    67   39   65 1
    68   40   66 1
    69   41   67 1
    70   41   68 1
    71   41   77 1
    72   42   69 1
    73   42   80 1
    74   43   70 1
    75   43   71 1
    76   43   78 1
    77   44   45 1
    78   44   72 1
    79   44   76 1
    80   45   73 1
    81   45   74 1
    82   45   75 1
@<TRIPOS>MOLECULE
ZINC08214483
   86    88     0     0     0
SMALL
USER_CHARGES

@<TRIPOS>ATOM
      1 C1          0.5001    1.6887    0.3312 C.3       1 <0>        -0.1540
      2 C2          1.9927    1.9719    0.1498 C.3       1 <0>         0.0290
      3 H1          2.5324    1.6640    1.0453 H         1 <0>         0.1747
      4 C3          2.5173    1.1897   -1.0560 C.3       1 <0>         0.0720
      5 H2          1.9775    1.4976   -1.9516 H         1 <0>         0.1000
      6 C4          2.3069   -0.3077   -0.8233 C.3       1 <0>         0.1027
      7 H3          2.8466   -0.6156    0.0722 H         1 <0>         0.0943
      8 C5          0.8143   -0.5909   -0.6419 C.3       1 <0>         0.0451
      9 H4          0.2746   -0.2830   -1.5374 H         1 <0>         0.0916
     10 C6          0.2897    0.1912    0.5639 C.3       1 <0>         0.1232
     11 H5          0.8294   -0.1166    1.4595 H         1 <0>         0.1277
     12 N1         -1.1395   -0.0799    0.7377 N.am      1 <0>        -0.7275
     13 C7         -1.6575   -0.1968    1.9764 C.2       1 <0>         0.4835
     14 O1         -0.9405   -0.0775    2.9473 O.2       1 <0>        -0.4875
     15 C8         -3.1276   -0.4757    2.1551 C.3       1 <0>         0.0976
     16 H6         -3.3971   -1.3742    1.5999 H         1 <0>         0.1368
     17 C9         -3.9392    0.7105    1.6307 C.3       1 <0>        -0.1834
     18 C10        -5.4310    0.3770    1.6968 C.3       1 <0>        -0.0086
     19 N2         -6.2102    1.5159    1.1933 N.4       1 <0>        -0.6381
     20 O2         -3.4104   -0.6702    3.5423 O.3       1 <0>        -0.5199
     21 O3          0.6178   -1.9896   -0.4245 O.3       1 <0>        -0.3560
     22 C11        -0.6245   -2.4868   -0.9260 C.3       1 <0>         0.2170
     23 H7         -1.4361   -1.8403   -0.5921 H         1 <0>         0.0948
     24 C12        -0.8547   -3.9069   -0.4025 C.3       1 <0>         0.0511
     25 H8         -1.8207   -4.2717   -0.7515 H         1 <0>         0.0855
     26 C13         0.2571   -4.8218   -0.9251 C.3       1 <0>         0.1135
     27 H9          1.2184   -4.4864   -0.5358 H         1 <0>         0.1033
     28 C14         0.2751   -4.7622   -2.4556 C.3       1 <0>         0.0879
     29 H10        -0.6681   -5.1443   -2.8461 H         1 <0>         0.0695
     30 C15         0.4616   -3.3091   -2.8998 C.3       1 <0>         0.0673
     31 H11         1.4234   -2.9406   -2.5431 H         1 <0>         0.0818
     32 O4         -0.5881   -2.5069   -2.3544 O.3       1 <0>        -0.3698
     33 C16         0.4208   -3.2332   -4.4274 C.3       1 <0>         0.0779
     34 O5          0.6946   -1.8944   -4.8453 O.3       1 <0>        -0.5691
     35 O6          1.3542   -5.5568   -2.9518 O.3       1 <0>        -0.5301
     36 N3          0.0043   -6.2014   -0.4882 N.3       1 <0>        -0.8235
     37 O7         -0.8354   -3.8981    1.0264 O.3       1 <0>        -0.5315
     38 O8          2.7968   -1.0383   -1.9495 O.3       1 <0>        -0.5466
     39 O9          3.9113    1.4542   -1.2255 O.3       1 <0>        -0.3710
     40 C17         4.3566    1.3789   -2.5813 C.3       1 <0>         0.2171
     41 H12         4.0128    0.4448   -3.0254 H         1 <0>         0.1583
     42 C18         5.8861    1.4301   -2.6199 C.3       1 <0>         0.0583
     43 H13         6.2280    1.3320   -3.6502 H         1 <0>         0.1050
     44 C19         6.3589    2.7707   -2.0491 C.3       1 <0>         0.0845
     45 H14         6.0599    2.8477   -1.0038 H         1 <0>         0.0779
     46 C20         5.7188    3.9085   -2.8504 C.3       1 <0>         0.0899
     47 H15         6.0572    3.8604   -3.8854 H         1 <0>         0.0988
     48 C21         4.1957    3.7615   -2.8028 C.3       1 <0>         0.0757
     49 H16         3.8539    3.8501   -1.7716 H         1 <0>         0.0562
     50 O10         3.8254    2.4813   -3.3193 O.3       1 <0>        -0.3800
     51 C22         3.5504    4.8599   -3.6503 C.3       1 <0>        -0.0050
     52 N4          2.0898    4.7928   -3.5092 N.4       1 <0>        -0.6392
     53 O11         6.0966    5.1640   -2.2822 O.3       1 <0>        -0.5616
     54 O12         7.7820    2.8566   -2.1469 O.3       1 <0>        -0.5506
     55 O13         6.4197    0.3611   -1.8359 O.3       1 <0>        -0.5376
     56 N5          2.1947    3.4097   -0.0737 N.4       1 <0>        -0.6354
     57 H17         0.1263    2.2460    1.1902 H         1 <0>         0.1143
     58 H18        -0.0396    1.9966   -0.5643 H         1 <0>         0.0954
     59 H19        -1.7129   -0.1753   -0.0388 H         1 <0>         0.4017
     60 H20        -3.7359    1.5890    2.2431 H         1 <0>         0.1012
     61 H21        -3.6581    0.9148    0.5976 H         1 <0>         0.0974
     62 H22        -5.6343   -0.5015    1.0845 H         1 <0>         0.1414
     63 H23        -5.7121    0.1727    2.7299 H         1 <0>         0.1493
     64 H24        -5.9499    1.7050    0.2370 H         1 <0>         0.4328
     65 H25        -7.1940    1.2959    1.2369 H         1 <0>         0.4483
     66 H26        -3.1947    0.0911    4.0982 H         1 <0>         0.3953
     67 H27         1.1712   -3.9047   -4.8447 H         1 <0>         0.0721
     68 H28        -0.5675   -3.5289   -4.7795 H         1 <0>         0.0618
     69 H29         0.6851   -1.7721   -5.8045 H         1 <0>         0.3882
     70 H30         1.4257   -5.5649   -3.9161 H         1 <0>         0.3817
     71 H31        -0.0183   -6.2634    0.5187 H         1 <0>         0.3587
     72 H32        -1.5121   -3.3342    1.4254 H         1 <0>         0.3742
     73 H33         2.7623   -1.9985   -1.8407 H         1 <0>         0.4058
     74 H34         3.9037    5.8341   -3.3126 H         1 <0>         0.1728
     75 H35         3.8212    4.7178   -4.6966 H         1 <0>         0.1654
     76 H36         1.7627    3.8909   -3.8218 H         1 <0>         0.4420
     77 H37         1.8391    4.9243   -2.5407 H         1 <0>         0.4088
     78 H38         7.0506    5.3217   -2.2758 H         1 <0>         0.4210
     79 H39         8.2519    2.1611   -1.6667 H         1 <0>         0.4096
     80 H40         6.1563   -0.5185   -2.1392 H         1 <0>         0.3994
     81 H41         1.8487    3.9255    0.7215 H         1 <0>         0.4523
     82 H42         3.1790    3.5964   -0.1934 H         1 <0>         0.4436
     83 H43        -6.0219    2.3291    1.7602 H         1 <0>         0.4367
     84 H44         1.6642    5.5171   -4.0681 H         1 <0>         0.4564
     85 H45         1.6950    3.6947   -0.9027 H         1 <0>         0.4056
     86 H46        -0.8490   -6.5578   -0.8917 H         1 <0>         0.3427
@<TRIPOS>BOND
     1    1   10 1
     2    1    2 1
     3    1   57 1
     4    1   58 1
     5    2    3 1
     6    2    4 1
     7    2   56 1
     8    4    5 1
     9    4    6 1
    10    4   39 1
    11    6    7 1
    12    6    8 1
    13    6   38 1
    14    8    9 1
    15    8   10 1
    16    8   21 1
    17   10   11 1
    18   10   12 1
    19   12   13 am
    20   12   59 1
    21   13   14 2
    22   13   15 1
    23   15   16 1
    24   15   17 1
    25   15   20 1
    26   17   18 1
    27   17   60 1
    28   17   61 1
    29   18   19 1
    30   18   62 1
    31   18   63 1
    32   19   64 1
    33   19   65 1
    34   19   83 1
    35   20   66 1
    36   21   22 1
    37   22   23 1
    38   22   32 1
    39   22   24 1
    40   24   25 1
    41   24   26 1
    42   24   37 1
    43   26   27 1
    44   26   28 1
    45   26   36 1
    46   28   29 1
    47   28   30 1
    48   28   35 1
    49   30   31 1
    50   30   32 1
    51   30   33 1
    52   33   34 1
    53   33   67 1
    54   33   68 1
    55   34   69 1
    56   35   70 1
    57   36   71 1
    58   36   86 1
    59   37   72 1
    60   38   73 1
    61   39   40 1
    62   40   41 1
    63   40   50 1
    64   40   42 1
    65   42   43 1
    66   42   44 1
    67   42   55 1
    68   44   45 1
    69   44   46 1
    70   44   54 1
    71   46   47 1
    72   46   48 1
    73   46   53 1
    74   48   49 1
    75   48   50 1
    76   48   51 1
    77   51   52 1
    78   51   74 1
    79   51   75 1
    80   52   76 1
    81   52   77 1
    82   52   84 1
    83   53   78 1
    84   54   79 1
    85   55   80 1
    86   56   81 1
    87   56   82 1
    88   56   85 1
@<TRIPOS>MOLECULE
ZINC13298720
   35    35     0     0     0
SMALL
USER_CHARGES

@<TRIPOS>ATOM
      1 C1         -0.0187    1.5258    0.0104 C.3       1 <0>        -0.1553
      2 C2          0.0021   -0.0041    0.0020 C.3       1 <0>        -0.1208
      3 C3         -1.4333   -0.5336    0.0129 C.3       1 <0>        -0.1290
      4 C4         -1.4126   -2.0635    0.0045 C.3       1 <0>        -0.0752
      5 H1         -0.8102   -2.4233    0.8386 H         1 <0>         0.1058
      6 C5         -0.8086   -2.5581   -1.3114 C.3       1 <0>        -0.1673
      7 C6         -2.8413   -2.5937    0.1410 C.3       1 <0>        -0.1056
      8 C7         -3.6511   -2.0759   -1.0326 C.2       1 <0>         0.5352
      9 O1         -3.3258   -2.3159   -2.1757 O.2       1 <0>        -0.4358
     10 N1         -4.7476   -1.3383   -0.7571 N.am      1 <0>        -0.6207
     11 C8         -5.1200   -1.0645    0.4984 C.2       1 <0>         0.5466
     12 N2         -4.4711   -1.4758    1.5938 N.am      1 <0>        -0.6229
     13 C9         -3.3512   -2.2261    1.5216 C.2       1 <0>         0.5333
     14 O2         -2.7742   -2.5923    2.5231 O.2       1 <0>        -0.4405
     15 S1         -6.5295   -0.1183    0.7196 S.2       1 <0>        -0.4943
     16 C10        -2.7901   -4.1200    0.0476 C.3       1 <0>        -0.0782
     17 C11        -4.1837   -4.6782    0.1785 C.2       1 <0>        -0.1970
     18 C12        -4.6613   -5.4714   -0.7483 C.2       1 <0>        -0.1533
     19 H2          1.0039    1.9031    0.0027 H         1 <0>         0.0592
     20 H3         -0.5459    1.8868   -0.8726 H         1 <0>         0.0546
     21 H4         -0.5289    1.8773    0.9072 H         1 <0>         0.0539
     22 H5          0.5123   -0.3556   -0.8948 H         1 <0>         0.0710
     23 H6          0.5293   -0.3651    0.8851 H         1 <0>         0.0670
     24 H7         -1.9435   -0.1821    0.9097 H         1 <0>         0.0588
     25 H8         -1.9605   -0.1726   -0.8702 H         1 <0>         0.0646
     26 H9         -1.4109   -2.1983   -2.1456 H         1 <0>         0.0844
     27 H10         0.2092   -2.1804   -1.4086 H         1 <0>         0.0708
     28 H11        -0.7938   -3.6480   -1.3174 H         1 <0>         0.0662
     29 H12        -4.8157   -1.2275    2.4659 H         1 <0>         0.4470
     30 H13        -2.3709   -4.4112   -0.9155 H         1 <0>         0.1069
     31 H14        -2.1648   -4.5123    0.8496 H         1 <0>         0.1061
     32 H15        -4.7888   -4.4244    1.0363 H         1 <0>         0.1069
     33 H16        -4.0562   -5.7253   -1.6061 H         1 <0>         0.1051
     34 H17        -5.6600   -5.8715   -0.6546 H         1 <0>         0.1058
     35 H18        -5.2813   -0.9962   -1.4913 H         1 <0>         0.4468
@<TRIPOS>BOND
     1    1    2 1
     2    1   19 1
     3    1   20 1
     4    1   21 1
     5    2    3 1
     6    2   22 1
     7    2   23 1
     8    3    4 1
     9    3   24 1
    10    3   25 1
    11    4    5 1
    12    4    6 1
    13    4    7 1
    14    6   26 1
    15    6   27 1
    16    6   28 1
    17    7    8 1
    18    7   16 1
    19    7   13 1
    20    8    9 2
    21    8   10 am
    22   10   11 1
    23   10   35 1
    24   11   12 1
    25   11   15 2
    26   12   13 am
    27   12   29 1
    28   13   14 2
    29   16   17 1
    30   16   30 1
    31   16   31 1
    32   17   18 2
    33   17   32 1
    34   18   33 1
    35   18   34 1
@<TRIPOS>MOLECULE
ZINC00121458
   24    25     0     0     0
SMALL
USER_CHARGES

@<TRIPOS>ATOM
      1 C1         -0.0168    1.3849    0.0097 C.ar      1 <0>        -0.2214
      2 C2          1.1707    2.0901    0.0021 C.ar      1 <0>         0.0243
      3 C3          2.3774    1.4150   -0.0135 C.ar      1 <0>        -0.6774
      4 C4          2.3998    0.0323   -0.0211 C.ar      1 <0>         0.0243
      5 C5          1.2161   -0.6790   -0.0137 C.ar      1 <0>        -0.2213
      6 C6          0.0021   -0.0041    0.0020 C.ar      1 <0>         0.2473
      7 N1         -1.1970   -0.7204    0.0101 N.pl3     1 <0>        -0.8762
      8 S1          3.8900    2.3186   -0.0243 S.o2      1 <0>         2.6421
      9 O1          4.8717    1.4606   -0.5894 O.2       1 <0>        -1.0158
     10 O2          3.5945    3.5988   -0.5657 O.2       1 <0>        -1.0157
     11 N2          4.3264    2.5618    1.5546 N.2       1 <0>        -1.0331
     12 C7          5.4898    3.2535    1.8535 C.2       1 <0>         0.4032
     13 N3          6.3592    3.7888    1.0231 N.2       1 <0>        -0.6671
     14 C8          7.4290    4.4222    1.4709 C.2       1 <0>         0.1013
     15 C9          7.5856    4.4930    2.8146 C.2       1 <0>        -0.3485
     16 S2          6.1299    3.6190    3.3665 S.3       1 <0>         0.0049
     17 H1         -0.9589    1.9127    0.0260 H         1 <0>         0.1235
     18 H2          1.1567    3.1700    0.0080 H         1 <0>         0.1361
     19 H3          3.3440   -0.4918   -0.0333 H         1 <0>         0.1361
     20 H4          1.2342   -1.7588   -0.0200 H         1 <0>         0.1235
     21 H5         -2.0441   -0.2480    0.0210 H         1 <0>         0.3977
     22 H6         -1.1825   -1.6903    0.0047 H         1 <0>         0.3976
     23 H7          8.1469    4.8637    0.7955 H         1 <0>         0.1449
     24 H8          8.3725    4.9543    3.3928 H         1 <0>         0.1697
@<TRIPOS>BOND
     1    1    6 ar
     2    1    2 ar
     3    1   17 1
     4    2    3 ar
     5    2   18 1
     6    3    4 ar
     7    3    8 1
     8    4    5 ar
     9    4   19 1
    10    5    6 ar
    11    5   20 1
    12    6    7 1
    13    7   21 1
    14    7   22 1
    15    8    9 2
    16    8   10 2
    17    8   11 1
    18   11   12 1
    19   12   16 1
    20   12   13 2
    21   13   14 1
    22   14   15 2
    23   14   23 1
    24   15   16 1
    25   15   24 1
@<TRIPOS>MOLECULE
ZINC19340795
   56    59     0     0     0
SMALL
USER_CHARGES

@<TRIPOS>ATOM
      1 C1          1.8887    1.1751   -0.5685 C.3       1 <0>        -0.1577
      2 C2          1.6196   -0.3310   -0.5578 C.3       1 <0>         0.0766
      3 O1          0.2166   -0.5652   -0.6942 O.3       1 <0>        -0.2816
      4 C3         -0.1920   -1.8518   -0.7032 C.2       1 <0>         0.5565
      5 N1          0.6831   -2.8162   -0.5902 N.2       1 <0>        -0.6086
      6 C4          0.2633   -4.1222   -0.5471 C.ar      1 <0>         0.1474
      7 C5         -0.4959   -4.6468   -1.5934 C.ar      1 <0>        -0.1746
      8 C6         -0.9129   -5.9611   -1.5461 C.ar      1 <0>        -0.0419
      9 C7         -0.5825   -6.7640   -0.4613 C.ar      1 <0>        -0.1512
     10 C8          0.1716   -6.2485    0.5901 C.ar      1 <0>         0.1485
     11 C9          0.5996   -4.9277    0.5391 C.ar      1 <0>        -0.1251
     12 N2          0.5111   -7.0203    1.7005 N.am      1 <0>        -0.4815
     13 C10         0.5940   -8.4118    1.7074 C.ar      1 <0>         0.1314
     14 C11         1.3999   -9.0319    2.6569 C.ar      1 <0>        -0.1777
     15 C12         1.5006  -10.4089    2.6946 C.ar      1 <0>        -0.0903
     16 C13         0.8004  -11.1832    1.7880 C.ar      1 <0>        -0.1039
     17 C14        -0.0016  -10.5785    0.8390 C.ar      1 <0>        -0.0601
     18 C15        -0.1061   -9.1944    0.7937 C.ar      1 <0>        -0.1209
     19 S1         -1.1240   -8.4403   -0.4299 S.3       1 <0>         0.0528
     20 C16         0.7793   -6.3734    2.8520 C.2       1 <0>         0.5186
     21 O2          0.8576   -5.1627    2.8636 O.2       1 <0>        -0.4835
     22 C17         0.9819   -7.1537    4.1252 C.3       1 <0>        -0.1817
     23 C18         0.4969   -6.3232    5.3151 C.3       1 <0>        -0.0036
     24 N3          0.6944   -7.0839    6.5562 N.4       1 <0>        -0.3836
     25 C19        -0.1629   -8.2771    6.5412 C.3       1 <0>        -0.0533
     26 C20         0.0449   -9.0681    7.8351 C.3       1 <0>         0.0378
     27 O3         -0.2461   -8.2262    8.9542 O.3       1 <0>        -0.3553
     28 C21         0.5478   -7.0374    8.9998 C.3       1 <0>         0.0364
     29 C22         0.3410   -6.2426    7.7080 C.3       1 <0>        -0.0432
     30 O4         -1.5043   -2.1425   -0.8290 O.3       1 <0>        -0.4842
     31 H1          1.5392    1.6000   -1.5094 H         1 <0>         0.0712
     32 H2          1.3596    1.6446    0.2609 H         1 <0>         0.0695
     33 H3          2.9589    1.3538   -0.4644 H         1 <0>         0.0901
     34 H4          2.1487   -0.8005   -1.3871 H         1 <0>         0.0791
     35 H5          1.9691   -0.7559    0.3832 H         1 <0>         0.0773
     36 H6         -0.7561   -4.0260   -2.4381 H         1 <0>         0.1413
     37 H7         -1.4997   -6.3679   -2.3564 H         1 <0>         0.1457
     38 H8          1.1918   -4.5225    1.3464 H         1 <0>         0.1809
     39 H9          1.9500   -8.4334    3.3680 H         1 <0>         0.1484
     40 H10         2.1287  -10.8825    3.4346 H         1 <0>         0.1398
     41 H11         0.8804  -12.2597    1.8214 H         1 <0>         0.1429
     42 H12        -0.5481  -11.1835    0.1307 H         1 <0>         0.1452
     43 H13         0.4148   -8.0833    4.0757 H         1 <0>         0.1307
     44 H14         2.0410   -7.3803    4.2478 H         1 <0>         0.1382
     45 H15         1.0640   -5.3936    5.3646 H         1 <0>         0.1495
     46 H16        -0.5622   -6.0966    5.1924 H         1 <0>         0.1379
     47 H17        -1.2070   -7.9738    6.4641 H         1 <0>         0.1419
     48 H18         0.0985   -8.9020    5.6871 H         1 <0>         0.1421
     49 H19        -0.6215   -9.9306    7.8455 H         1 <0>         0.1432
     50 H20         1.0796   -9.4059    7.8931 H         1 <0>         0.0828
     51 H21         0.2455   -6.4302    9.8530 H         1 <0>         0.1438
     52 H22         1.5997   -7.3057    9.0976 H         1 <0>         0.0826
     53 H23         0.9765   -5.3571    7.7201 H         1 <0>         0.1458
     54 H24        -0.7033   -5.9401    7.6304 H         1 <0>         0.1409
     55 H25        -1.7100   -3.0823   -0.7320 H         1 <0>         0.4227
     56 H26         1.6608   -7.3646    6.6285 H         1 <0>         0.4237
@<TRIPOS>BOND
     1    1    2 1
     2    1   31 1
     3    1   32 1
     4    1   33 1
     5    2    3 1
     6    2   34 1
     7    2   35 1
     8    3    4 1
     9    4    5 2
    10    4   30 1
    11    5    6 1
    12    6   11 ar
    13    6    7 ar
    14    7    8 ar
    15    7   36 1
    16    8    9 ar
    17    8   37 1
    18    9   19 1
    19    9   10 ar
    20   10   11 ar
    21   10   12 1
    22   11   38 1
    23   12   13 1
    24   12   20 am
    25   13   18 ar
    26   13   14 ar
    27   14   15 ar
    28   14   39 1
    29   15   16 ar
    30   15   40 1
    31   16   17 ar
    32   16   41 1
    33   17   18 ar
    34   17   42 1
    35   18   19 1
    36   20   21 2
    37   20   22 1
    38   22   23 1
    39   22   43 1
    40   22   44 1
    41   23   24 1
    42   23   45 1
    43   23   46 1
    44   24   29 1
    45   24   25 1
    46   24   56 1
    47   25   26 1
    48   25   47 1
    49   25   48 1
    50   26   27 1
    51   26   49 1
    52   26   50 1
    53   27   28 1
    54   28   29 1
    55   28   51 1
    56   28   52 1
    57   29   53 1
    58   29   54 1
    59   30   55 1
@<TRIPOS>MOLECULE
ZINC00120319
   26    27     0     0     0
SMALL
USER_CHARGES

@<TRIPOS>ATOM
      1 C1         -0.0167    1.3818    0.0096 C.ar      1 <0>        -0.3480
      2 C2          1.1915    2.0609    0.0018 C.ar      1 <0>         0.1766
      3 N1          2.3197    1.3705   -0.0127 N.ar      1 <0>        -0.5541
      4 C3          2.3029    0.0457   -0.0197 C.ar      1 <0>         0.5938
      5 N2          1.1654   -0.6335   -0.0129 N.ar      1 <0>        -0.6225
      6 C4          0.0021   -0.0041    0.0020 C.ar      1 <0>         0.1869
      7 N3          3.5022   -0.6451   -0.0348 N.2       1 <0>        -1.0522
      8 S1          3.5038   -2.3010   -0.0438 S.o2      1 <0>         2.6468
      9 O1          2.9653   -2.7144    1.2046 O.2       1 <0>        -1.0223
     10 O2          2.9415   -2.7010   -1.2860 O.2       1 <0>        -1.0223
     11 C5          5.1874   -2.8203   -0.0626 C.ar      1 <0>        -0.6758
     12 C6          5.8369   -3.0117   -1.2684 C.ar      1 <0>         0.0240
     13 C7          7.1565   -3.4186   -1.2868 C.ar      1 <0>        -0.2217
     14 C8          7.8314   -3.6356   -0.0923 C.ar      1 <0>         0.2456
     15 C9          7.1761   -3.4424    1.1172 C.ar      1 <0>        -0.2218
     16 C10         5.8581   -3.0300    1.1284 C.ar      1 <0>         0.0239
     17 N4          9.1659   -4.0477   -0.1072 N.pl3     1 <0>        -0.8769
     18 H1         -0.9525    1.9208    0.0259 H         1 <0>         0.1213
     19 H2          1.2116    3.1407    0.0070 H         1 <0>         0.1461
     20 H3         -0.9219   -0.5632    0.0082 H         1 <0>         0.1425
     21 H4          5.3114   -2.8431   -2.1968 H         1 <0>         0.1353
     22 H5          7.6630   -3.5682   -2.2289 H         1 <0>         0.1227
     23 H6          7.6978   -3.6107    2.0477 H         1 <0>         0.1227
     24 H7          5.3492   -2.8753    2.0684 H         1 <0>         0.1353
     25 H8          9.6224   -4.1825   -0.9524 H         1 <0>         0.3972
     26 H9          9.6362   -4.1989    0.7276 H         1 <0>         0.3972
@<TRIPOS>BOND
     1    1    6 ar
     2    1    2 ar
     3    1   18 1
     4    2    3 ar
     5    2   19 1
     6    3    4 ar
     7    4    5 ar
     8    4    7 1
     9    5    6 ar
    10    6   20 1
    11    7    8 1
    12    8    9 2
    13    8   10 2
    14    8   11 1
    15   11   16 ar
    16   11   12 ar
    17   12   13 ar
    18   12   21 1
    19   13   14 ar
    20   13   22 1
    21   14   15 ar
    22   14   17 1
    23   15   16 ar
    24   15   23 1
    25   16   24 1
    26   17   25 1
    27   17   26 1
@<TRIPOS>MOLECULE
ZINC18202350
   55    58     0     0     0
SMALL
USER_CHARGES

@<TRIPOS>ATOM
      1 C1         -0.2929    1.5533    0.1297 C.3       1 <0>        -0.1854
      2 C2         -0.6084    0.0565    0.1597 C.3       1 <0>         0.1818
      3 C3         -0.2944   -0.5492   -1.1840 C.ar      1 <0>        -0.0799
      4 C4         -0.2904    0.2313   -2.3184 C.ar      1 <0>        -0.1376
      5 C5         -0.0110   -0.3348   -3.5522 C.ar      1 <0>        -0.1188
      6 C6          0.2650   -1.6842   -3.6583 C.ar      1 <0>        -0.1626
      7 C7          0.2689   -2.4850   -2.5260 C.ar      1 <0>         0.1302
      8 C8         -0.0078   -1.9144   -1.2758 C.ar      1 <0>        -0.0789
      9 C9          0.0153   -2.7346   -0.0556 C.2       1 <0>         0.3299
     10 O1         -0.0172   -4.0824   -0.1401 O.3       1 <0>        -0.6040
     11 C10         0.0713   -2.1139    1.1802 C.2       1 <0>        -0.4693
     12 C11         0.2352   -0.6190    1.2379 C.3       1 <0>        -0.0015
     13 H1          1.2839   -0.3716    1.0731 H         1 <0>         0.0484
     14 C12        -0.1721   -0.1000    2.6193 C.3       1 <0>         0.1264
     15 H2         -1.2442   -0.2351    2.7621 H         1 <0>         0.1140
     16 C13         0.5926   -0.8999    3.6691 C.3       1 <0>        -0.0785
     17 H3          1.6370   -0.9452    3.3607 H         1 <0>         0.0718
     18 C14         0.5372   -0.2450    5.0354 C.3       1 <0>         0.0975
     19 H4          0.7546    0.8176    4.9272 H         1 <0>         0.0522
     20 C15        -0.8040   -0.4032    5.6867 C.2       1 <0>         0.3614
     21 O2         -1.1509    0.4422    6.6684 O.3       1 <0>        -0.6275
     22 C16        -1.6891   -1.3831    5.3124 C.2       1 <0>        -0.5076
     23 C17        -1.3566   -2.3021    4.2249 C.2       1 <0>         0.3968
     24 O3         -2.2053   -3.0255    3.7456 O.2       1 <0>        -0.5138
     25 C18         0.0560   -2.3293    3.7205 C.3       1 <0>         0.0807
     26 C19         0.0035   -2.8960    2.3269 C.2       1 <0>         0.3812
     27 O4         -0.1042   -4.1003    2.1979 O.2       1 <0>        -0.5014
     28 O5          0.8737   -3.1346    4.5720 O.3       1 <0>        -0.5090
     29 C20        -2.9793   -1.5092    6.0088 C.2       1 <0>         0.5870
     30 O6         -3.2261   -0.7994    6.9653 O.2       1 <0>        -0.5798
     31 N1         -3.8876   -2.4111    5.5868 N.am      1 <0>        -0.8795
     32 N2          1.5585   -0.8544    5.8977 N.3       1 <0>        -0.5087
     33 C21         2.9101   -0.5420    5.4145 C.3       1 <0>         0.0296
     34 C22         1.3881   -0.4326    7.2945 C.3       1 <0>         0.0361
     35 O7          0.1589    1.2857    2.7313 O.3       1 <0>        -0.5511
     36 O8          0.5385   -3.8108   -2.6275 O.3       1 <0>        -0.4713
     37 O9         -1.9943   -0.1316    0.4529 O.3       1 <0>        -0.5278
     38 H5          0.7826    1.6958    0.0242 H         1 <0>         0.0567
     39 H6         -0.8052    2.0158   -0.7139 H         1 <0>         0.0457
     40 H7         -0.6312    2.0146    1.0575 H         1 <0>         0.0973
     41 H8         -0.5059    1.2871   -2.2466 H         1 <0>         0.1234
     42 H9         -0.0094    0.2837   -4.4376 H         1 <0>         0.1158
     43 H10         0.4778   -2.1164   -4.6248 H         1 <0>         0.1186
     44 H11         0.6267   -4.0694    4.5852 H         1 <0>         0.3658
     45 H12        -3.6590   -3.0357    4.8807 H         1 <0>         0.4027
     46 H13        -4.7699   -2.4356    5.9891 H         1 <0>         0.3675
     47 H14         3.0794    0.5329    5.4787 H         1 <0>         0.0101
     48 H15         3.6449   -1.0628    6.0285 H         1 <0>         0.0579
     49 H16         3.0089   -0.8641    4.3779 H         1 <0>         0.0671
     50 H17         0.4485   -0.8273    7.6812 H         1 <0>         0.0797
     51 H18         2.2158   -0.8136    7.8926 H         1 <0>         0.0448
     52 H19         1.3735    0.6561    7.3460 H         1 <0>         0.0206
     53 H20         1.0880    1.4840    2.5509 H         1 <0>         0.3569
     54 H21         1.4767   -4.0290   -2.5424 H         1 <0>         0.3806
     55 H22        -2.5911    0.2733   -0.1913 H         1 <0>         0.3577
@<TRIPOS>BOND
     1    1    2 1
     2    1   38 1
     3    1   39 1
     4    1   40 1
     5    2   12 1
     6    2    3 1
     7    2   37 1
     8    3    8 ar
     9    3    4 ar
    10    4    5 ar
    11    4   41 1
    12    5    6 ar
    13    5   42 1
    14    6    7 ar
    15    6   43 1
    16    7    8 ar
    17    7   36 1
    18    8    9 1
    19    9   10 1
    20    9   11 2
    21   11   26 1
    22   11   12 1
    23   12   13 1
    24   12   14 1
    25   14   15 1
    26   14   16 1
    27   14   35 1
    28   16   17 1
    29   16   25 1
    30   16   18 1
    31   18   19 1
    32   18   20 1
    33   18   32 1
    34   20   21 1
    35   20   22 2
    36   22   23 1
    37   22   29 1
    38   23   24 2
    39   23   25 1
    40   25   26 1
    41   25   28 1
    42   26   27 2
    43   28   44 1
    44   29   30 2
    45   29   31 am
    46   31   45 1
    47   31   46 1
    48   32   33 1
    49   32   34 1
    50   33   47 1
    51   33   48 1
    52   33   49 1
    53   34   50 1
    54   34   51 1
    55   34   52 1
    56   35   53 1
    57   36   54 1
    58   37   55 1
@<TRIPOS>MOLECULE
ZINC53682936
   81    84     0     0     0
SMALL
USER_CHARGES

@<TRIPOS>ATOM
      1 C1          0.3236    2.1187    0.7086 C.3       1 <0>        -0.1806
      2 C2          0.3109    0.5929    0.5960 C.3       1 <0>         0.1822
      3 C3          1.0575    0.1754   -0.6447 C.ar      1 <0>        -0.0835
      4 C4          1.1860    1.0415   -1.7074 C.ar      1 <0>        -0.1378
      5 C5          1.8649    0.6469   -2.8494 C.ar      1 <0>        -0.1064
      6 C6          2.4182   -0.6160   -2.9350 C.ar      1 <0>        -0.1571
      7 C7          2.3017   -1.5004   -1.8731 C.ar      1 <0>         0.1387
      8 C8          1.6203   -1.1023   -0.7145 C.ar      1 <0>        -0.0940
      9 C9          1.5044   -2.0101    0.4365 C.2       1 <0>         0.3470
     10 O1          1.7591   -3.3289    0.2922 O.3       1 <0>        -0.5859
     11 C10         1.1325   -1.5018    1.6689 C.2       1 <0>        -0.4804
     12 C11         0.9802   -0.0129    1.8270 C.3       1 <0>         0.0260
     13 H1          1.9675    0.4327    1.9481 H         1 <0>         0.0537
     14 C12         0.1529    0.2995    3.0766 C.3       1 <0>        -0.0924
     15 C13         0.7787   -0.4400    4.2549 C.3       1 <0>        -0.0813
     16 H2          1.8547   -0.2690    4.2244 H         1 <0>         0.1009
     17 C14         0.2624    0.0702    5.5860 C.3       1 <0>         0.0361
     18 H3          0.2865    1.1600    5.5804 H         1 <0>         0.1393
     19 C15        -1.1394   -0.3838    5.8628 C.2       1 <0>         0.3206
     20 O2         -1.8757    0.2950    6.7550 O.3       1 <0>        -0.5778
     21 C16        -1.6952   -1.4701    5.2344 C.2       1 <0>        -0.4890
     22 C17        -0.9319   -2.2145    4.2338 C.2       1 <0>         0.4038
     23 O3         -1.4776   -3.0340    3.5239 O.2       1 <0>        -0.4807
     24 C18         0.5376   -1.9414    4.1087 C.3       1 <0>         0.0578
     25 C19         0.9408   -2.3821    2.7270 C.2       1 <0>         0.3787
     26 O4          1.1073   -3.5698    2.5263 O.2       1 <0>        -0.4970
     27 O5          1.2634   -2.6588    5.1090 O.3       1 <0>        -0.5627
     28 C20        -3.0658   -1.8878    5.5695 C.2       1 <0>         0.5879
     29 O6         -3.7465   -1.2032    6.3095 O.2       1 <0>        -0.5321
     30 N1         -3.5670   -3.0289    5.0566 N.am      1 <0>        -0.7442
     31 C21        -4.9671   -3.3871    5.2965 C.3       1 <0>         0.2207
     32 N2         -5.7895   -2.9312    4.1678 N.4       1 <0>        -0.5305
     33 C22        -7.1934   -3.2903    4.4085 C.3       1 <0>        -0.0030
     34 C23        -8.0500   -2.8155    3.2329 C.3       1 <0>        -0.1521
     35 C24        -9.5122   -3.1895    3.4835 C.3       1 <0>        -0.1282
     36 C25       -10.3687   -2.7148    2.3080 C.3       1 <0>        -0.1289
     37 C26       -11.8310   -3.0888    2.5586 C.3       1 <0>        -0.0512
     38 H4        -12.1497   -2.6850    3.5195 H         1 <0>         0.1350
     39 C27       -12.6912   -2.5149    1.4623 C.2       1 <0>         0.4870
     40 O7        -13.2109   -3.2551    0.6447 O.co2     1 <0>        -0.6694
     41 O8        -12.8675   -1.3105    1.3931 O.co2     1 <0>        -0.6322
     42 N3        -11.9668   -4.5514    2.5726 N.4       1 <0>        -0.6141
     43 N4          1.1403   -0.4197    6.6570 N.4       1 <0>        -0.3697
     44 C28         2.5261   -0.0225    6.3745 C.3       1 <0>        -0.0495
     45 C29         0.7173    0.1579    7.9397 C.3       1 <0>        -0.0500
     46 O9          2.8431   -2.7417   -1.9550 O.3       1 <0>        -0.4718
     47 O10        -1.0397    0.1333    0.5144 O.3       1 <0>        -0.5378
     48 H5          1.3536    2.4697    0.7724 H         1 <0>         0.0669
     49 H6         -0.1541    2.5518   -0.1701 H         1 <0>         0.0595
     50 H7         -0.2195    2.4214    1.6038 H         1 <0>         0.0658
     51 H8          0.7562    2.0308   -1.6511 H         1 <0>         0.1244
     52 H9          1.9619    1.3318   -3.6788 H         1 <0>         0.1225
     53 H10         2.9421   -0.9153   -3.8307 H         1 <0>         0.1253
     54 H11         0.1646    1.3727    3.2672 H         1 <0>         0.0689
     55 H12        -0.8734   -0.0385    2.9329 H         1 <0>         0.0845
     56 H13         1.1489   -3.6181    5.0659 H         1 <0>         0.4023
     57 H14        -3.0006   -3.6131    4.5285 H         1 <0>         0.4235
     58 H15        -5.0536   -4.4691    5.3954 H         1 <0>         0.1364
     59 H16        -5.3122   -2.9097    6.2136 H         1 <0>         0.1445
     60 H17        -5.7094   -1.9296    4.0763 H         1 <0>         0.4287
     61 H18        -7.2799   -4.3724    4.5073 H         1 <0>         0.1280
     62 H19        -7.5385   -2.8129    5.3256 H         1 <0>         0.1310
     63 H20        -7.9635   -1.7335    3.1340 H         1 <0>         0.0958
     64 H21        -7.7049   -3.2929    2.3158 H         1 <0>         0.0919
     65 H22        -9.5987   -4.2716    3.5824 H         1 <0>         0.0643
     66 H23        -9.8573   -2.7122    4.4006 H         1 <0>         0.0864
     67 H24       -10.2823   -1.6327    2.2091 H         1 <0>         0.1146
     68 H25       -10.0236   -3.1922    1.3908 H         1 <0>         0.0860
     69 H26       -11.3909   -4.9356    3.3066 H         1 <0>         0.4098
     70 H27       -12.9312   -4.7981    2.7379 H         1 <0>         0.4349
     71 H28         2.5684    1.0536    6.2059 H         1 <0>         0.1151
     72 H29         3.1588   -0.2825    7.2231 H         1 <0>         0.1181
     73 H30         2.8793   -0.5438    5.4847 H         1 <0>         0.1290
     74 H31        -0.3110   -0.1368    8.1494 H         1 <0>         0.1355
     75 H32         1.3687   -0.2056    8.7344 H         1 <0>         0.1111
     76 H33         0.7801    1.2449    7.8871 H         1 <0>         0.1146
     77 H34         3.7559   -2.7943   -1.6399 H         1 <0>         0.3851
     78 H35        -1.5279    0.4799   -0.2449 H         1 <0>         0.3643
     79 H36       -11.6718   -4.9252    1.6831 H         1 <0>         0.4326
     80 H37        -5.4700   -3.3731    3.3189 H         1 <0>         0.4243
     81 H38         1.0822   -1.4259    6.7058 H         1 <0>         0.4303
@<TRIPOS>BOND
     1    1    2 1
     2    1   48 1
     3    1   49 1
     4    1   50 1
     5    2   12 1
     6    2    3 1
     7    2   47 1
     8    3    8 ar
     9    3    4 ar
    10    4    5 ar
    11    4   51 1
    12    5    6 ar
    13    5   52 1
    14    6    7 ar
    15    6   53 1
    16    7    8 ar
    17    7   46 1
    18    8    9 1
    19    9   10 1
    20    9   11 2
    21   11   25 1
    22   11   12 1
    23   12   13 1
    24   12   14 1
    25   14   15 1
    26   14   54 1
    27   14   55 1
    28   15   16 1
    29   15   24 1
    30   15   17 1
    31   17   18 1
    32   17   19 1
    33   17   43 1
    34   19   20 1
    35   19   21 2
    36   21   22 1
    37   21   28 1
    38   22   23 2
    39   22   24 1
    40   24   25 1
    41   24   27 1
    42   25   26 2
    43   27   56 1
    44   28   29 2
    45   28   30 am
    46   30   31 1
    47   30   57 1
    48   31   32 1
    49   31   58 1
    50   31   59 1
    51   32   33 1
    52   32   60 1
    53   32   80 1
    54   33   34 1
    55   33   61 1
    56   33   62 1
    57   34   35 1
    58   34   63 1
    59   34   64 1
    60   35   36 1
    61   35   65 1
    62   35   66 1
    63   36   37 1
    64   36   67 1
    65   36   68 1
    66   37   38 1
    67   37   39 1
    68   37   42 1
    69   39   40 2
    70   39   41 1
    71   42   69 1
    72   42   70 1
    73   42   79 1
    74   43   44 1
    75   43   45 1
    76   43   81 1
    77   44   71 1
    78   44   72 1
    79   44   73 1
    80   45   74 1
    81   45   75 1
    82   45   76 1
    83   46   77 1
    84   47   78 1
@<TRIPOS>MOLECULE
ZINC14438802
   20    20     0     0     0
SMALL
NO_CHARGES

@<TRIPOS>ATOM
      1 C1         -0.0187    1.5258    0.0104 C.3       1 <0>         0.0480
      2 C2          0.0021   -0.0041    0.0020 C.3       1 <0>         0.1790
      3 H1          0.6044   -0.3639    0.8362 H         1 <0>         0.1437
      4 C3         -1.4051   -0.5263    0.1365 C.2       1 <0>         0.0824
      5 H2         -1.5700   -2.0712    2.9513 H         1 <0>         0.4080
      6 C4         -1.8421   -1.2278    1.1967 C.2       1 <0>        -0.0992
      7 C5         -3.2017   -1.5636    1.0100 C.2       1 <0>         0.3603
      8 C6         -3.5669   -0.9678   -0.3349 C.3       1 <0>         0.1989
      9 O1         -4.6065    0.0012   -0.1854 O.3       1 <0>        -0.5234
     10 O2         -2.3615   -0.3369   -0.7871 O.3       1 <0>        -0.2886
     11 O3         -3.9198   -2.1923    1.7617 O.2       1 <0>        -0.4022
     12 O4         -1.0903   -1.5635    2.2825 O.3       1 <0>        -0.4467
     13 O5          0.5662   -0.4660   -1.2270 O.3       1 <0>        -0.5342
     14 O6          1.3220    2.0204    0.0003 O.3       1 <0>        -0.5600
     15 H3         -0.5459    1.8868   -0.8726 H         1 <0>         0.0593
     16 H4         -0.5289    1.8773    0.9072 H         1 <0>         0.0618
     17 H5          0.0804   -0.1829   -2.0137 H         1 <0>         0.3824
     18 H6          1.3852    2.9853    0.0049 H         1 <0>         0.3866
     19 H7         -4.8805    0.4153   -1.0152 H         1 <0>         0.4016
     20 H8         -3.8750   -1.7514   -1.0272 H         1 <0>         0.1423
@<TRIPOS>BOND
     1    1    2 1
     2    1   14 1
     3    1   15 1
     4    1   16 1
     5    2    3 1
     6    2   13 1
     7    2    4 1
     8    4   10 1
     9    4    6 2
    10    5   12 1
    11    6    7 1
    12    6   12 1
    13    7    8 1
    14    7   11 2
    15    8    9 1
    16    8   10 1
    17    8   20 1
    18    9   19 1
    19   13   17 1
    20   14   18 1
@<TRIPOS>MOLECULE
ZINC19795961
   52    55     0     0     0
SMALL
USER_CHARGES

@<TRIPOS>ATOM
      1 C1         -0.0573    1.4728   -0.0081 C.3       1 <0>        -0.0458
      2 N1         -0.0272    0.0041    0.0012 N.4       1 <0>        -0.3726
      3 C2          0.7839   -0.4618    1.1339 C.3       1 <0>        -0.0455
      4 C3         -1.3958   -0.5129    0.1335 C.3       1 <0>         0.0067
      5 H1         -1.8532   -0.0889    1.0275 H         1 <0>         0.1390
      6 C4         -2.2030   -0.1002   -1.0816 C.3       1 <0>        -0.0773
      7 H2         -2.0320    0.9639   -1.2448 H         1 <0>         0.0932
      8 C5         -3.6985   -0.2924   -0.8298 C.3       1 <0>        -0.0955
      9 C6         -4.4768    0.4348   -1.9303 C.3       1 <0>         0.0177
     10 H3         -4.3205    1.5091   -1.8325 H         1 <0>         0.0548
     11 C7         -5.9651    0.1253   -1.7815 C.3       1 <0>         0.1530
     12 H4         -6.3318    0.5603   -0.8517 H         1 <0>         0.0596
     13 C8         -6.7408    0.6977   -2.9373 C.ar      1 <0>        -0.0706
     14 C9         -8.0046    1.2141   -2.7366 C.ar      1 <0>        -0.0512
     15 C10        -8.7262    1.7266   -3.8033 C.ar      1 <0>        -0.0980
     16 C11        -8.1910    1.7246   -5.0765 C.ar      1 <0>        -0.1460
     17 C12        -6.9194    1.2152   -5.2947 C.ar      1 <0>         0.1419
     18 C13        -6.1849    0.7056   -4.2173 C.ar      1 <0>        -0.1130
     19 C14        -4.8122    0.2008   -4.4190 C.2       1 <0>         0.4174
     20 C15        -3.9904   -0.0182   -3.2811 C.2       1 <0>        -0.4769
     21 C16        -2.7980   -0.5967   -3.4553 C.2       1 <0>         0.3036
     22 O1         -2.4682   -0.9959   -4.6998 O.3       1 <0>        -0.5955
     23 C17        -1.8073   -0.8259   -2.3475 C.3       1 <0>         0.1319
     24 C18        -1.6147   -2.2972   -2.1433 C.2       1 <0>         0.3209
     25 C19        -1.3986   -2.8539   -0.9084 C.2       1 <0>        -0.4951
     26 C20        -1.3468   -2.0086    0.2671 C.2       1 <0>         0.3725
     27 O2         -1.2949   -2.5212    1.3661 O.2       1 <0>        -0.5322
     28 C21        -1.1979   -4.3063   -0.7826 C.2       1 <0>         0.5851
     29 O3         -1.1284   -4.9994   -1.7798 O.2       1 <0>        -0.5542
     30 N2         -1.0911   -4.8686    0.4376 N.am      1 <0>        -0.8761
     31 O4         -1.6559   -3.1047   -3.2134 O.3       1 <0>        -0.5155
     32 O5         -0.5515   -0.2969   -2.7781 O.3       1 <0>        -0.5840
     33 O6         -4.3976   -0.0340   -5.5399 O.2       1 <0>        -0.4701
     34 O7         -6.3905    1.2112   -6.5443 O.3       1 <0>        -0.4722
     35 Cl1        -8.6932    1.2214   -1.1430 Cl        1 <0>        -0.0780
     36 O8         -6.1509   -1.2911   -1.7449 O.3       1 <0>        -0.5319
     37 H5          0.9626    1.8572   -0.0043 H         1 <0>         0.1156
     38 H6         -0.5731    1.8199   -0.9034 H         1 <0>         0.1280
     39 H7         -0.5839    1.8310    0.8765 H         1 <0>         0.1132
     40 H8          0.3479   -0.1014    2.0656 H         1 <0>         0.1163
     41 H9          0.8063   -1.5515    1.1408 H         1 <0>         0.1242
     42 H10         1.7994   -0.0782    1.0357 H         1 <0>         0.1136
     43 H11        -3.9397   -1.3552   -0.8522 H         1 <0>         0.0911
     44 H12        -3.9625    0.1249    0.1420 H         1 <0>         0.0618
     45 H13        -9.7139    2.1307   -3.6375 H         1 <0>         0.1326
     46 H14        -8.7631    2.1196   -5.9030 H         1 <0>         0.1350
     47 H15        -1.0668   -4.3086    1.2292 H         1 <0>         0.4002
     48 H16        -1.0385   -5.8333    0.5241 H         1 <0>         0.3766
     49 H17        -0.2114   -0.7010   -3.5880 H         1 <0>         0.4036
     50 H18        -5.8919    2.0104   -6.7629 H         1 <0>         0.3883
     51 H19        -7.0738   -1.5644   -1.6516 H         1 <0>         0.3645
     52 H20         0.3765   -0.3295   -0.8613 H         1 <0>         0.4351
@<TRIPOS>BOND
     1    1    2 1
     2    1   37 1
     3    1   38 1
     4    1   39 1
     5    2    3 1
     6    2    4 1
     7    2   52 1
     8    3   40 1
     9    3   41 1
    10    3   42 1
    11    4    5 1
    12    4   26 1
    13    4    6 1
    14    6    7 1
    15    6   23 1
    16    6    8 1
    17    8    9 1
    18    8   43 1
    19    8   44 1
    20    9   10 1
    21    9   20 1
    22    9   11 1
    23   11   12 1
    24   11   13 1
    25   11   36 1
    26   13   18 ar
    27   13   14 ar
    28   14   15 ar
    29   14   35 1
    30   15   16 ar
    31   15   45 1
    32   16   17 ar
    33   16   46 1
    34   17   18 ar
    35   17   34 1
    36   18   19 1
    37   19   20 1
    38   19   33 2
    39   20   21 2
    40   21   22 1
    41   21   23 1
    42   23   24 1
    43   23   32 1
    44   24   25 2
    45   24   31 1
    46   25   26 1
    47   25   28 1
    48   26   27 2
    49   28   29 2
    50   28   30 am
    51   30   47 1
    52   30   48 1
    53   32   49 1
    54   34   50 1
    55   36   51 1
@<TRIPOS>MOLECULE
ZINC19795961
   51    54     0     0     0
SMALL
USER_CHARGES

@<TRIPOS>ATOM
      1 C1          0.7681   -0.2947   -0.9734 C.3       1 <0>         0.0314
      2 N1         -0.0561   -0.0274    0.2128 N.3       1 <0>        -0.5077
      3 C2         -0.0382    1.4010    0.5554 C.3       1 <0>         0.0293
      4 C3         -1.4316   -0.5045    0.0165 C.3       1 <0>         0.0679
      5 H1         -1.8410   -0.0529   -0.8871 H         1 <0>         0.0443
      6 C4         -1.4170   -2.0120   -0.1436 C.3       1 <0>        -0.0500
      7 H2         -0.6420   -2.2588   -0.8693 H         1 <0>         0.0719
      8 C5         -2.7486   -2.5103   -0.7052 C.3       1 <0>        -0.0993
      9 C6         -2.5753   -3.9637   -1.1565 C.3       1 <0>         0.0174
     10 H3         -1.8922   -3.9985   -2.0052 H         1 <0>         0.0489
     11 C7         -3.9324   -4.5243   -1.5772 C.3       1 <0>         0.1522
     12 H4         -4.2783   -3.9990   -2.4675 H         1 <0>         0.0563
     13 C8         -3.8248   -5.9950   -1.8787 C.ar      1 <0>        -0.0678
     14 C9         -4.5693   -6.5500   -2.8993 C.ar      1 <0>        -0.0506
     15 C10        -4.4831   -7.9072   -3.1672 C.ar      1 <0>        -0.1056
     16 C11        -3.6547   -8.7182   -2.4163 C.ar      1 <0>        -0.1496
     17 C12        -2.8946   -8.1752   -1.3909 C.ar      1 <0>         0.1362
     18 C13        -2.9729   -6.8031   -1.1246 C.ar      1 <0>        -0.1032
     19 C14        -2.1384   -6.1966   -0.0684 C.2       1 <0>         0.4077
     20 C15        -2.0088   -4.7825   -0.0274 C.2       1 <0>        -0.4782
     21 C16        -1.3620   -4.2292    1.0034 C.2       1 <0>         0.3125
     22 O1         -0.9203   -5.0461    1.9805 O.3       1 <0>        -0.6037
     23 C17        -1.0991   -2.7545    1.1344 C.3       1 <0>         0.1493
     24 C18        -1.8361   -2.2173    2.3226 C.2       1 <0>         0.3373
     25 C19        -2.3883   -0.9620    2.3493 C.2       1 <0>        -0.5085
     26 C20        -2.2684   -0.0944    1.1951 C.2       1 <0>         0.4173
     27 O2         -2.8765    0.9558    1.1751 O.2       1 <0>        -0.5704
     28 C21        -3.0827   -0.4906    3.5580 C.2       1 <0>         0.5855
     29 O3         -3.0724   -1.1677    4.5685 O.2       1 <0>        -0.5739
     30 N2         -3.7302    0.6914    3.5455 N.am      1 <0>        -0.8807
     31 O4         -1.9619   -2.9972    3.4065 O.3       1 <0>        -0.5666
     32 O5          0.2954   -2.5886    1.3989 O.3       1 <0>        -0.5399
     33 O6         -1.5816   -6.8962    0.7585 O.2       1 <0>        -0.4842
     34 O7         -2.0799   -8.9689   -0.6509 O.3       1 <0>        -0.4727
     35 Cl1        -5.6178   -5.5453   -3.8506 Cl        1 <0>        -0.0829
     36 O8         -4.8723   -4.3281   -0.5189 O.3       1 <0>        -0.5264
     37 H5          1.7743    0.0918   -0.8113 H         1 <0>         0.0586
     38 H6          0.8155   -1.3695   -1.1482 H         1 <0>         0.0763
     39 H7          0.3260    0.1953   -1.8409 H         1 <0>         0.0105
     40 H8         -0.5158    1.9716   -0.2410 H         1 <0>         0.0161
     41 H9         -0.5787    1.5575    1.4889 H         1 <0>         0.0719
     42 H10         0.9932    1.7336    0.6725 H         1 <0>         0.0556
     43 H11        -3.5150   -2.4562    0.0679 H         1 <0>         0.0798
     44 H12        -3.0398   -1.8951   -1.5566 H         1 <0>         0.0481
     45 H13        -5.0677   -8.3336   -3.9690 H         1 <0>         0.1285
     46 H14        -3.5990   -9.7759   -2.6275 H         1 <0>         0.1307
     47 H15        -3.8089    1.1926    2.7188 H         1 <0>         0.4005
     48 H16        -4.1175    1.0409    4.3633 H         1 <0>         0.3647
     49 H17         0.5836   -2.9658    2.2413 H         1 <0>         0.3722
     50 H18        -1.1835   -9.0508   -1.0043 H         1 <0>         0.3862
     51 H19        -5.7594   -4.6600   -0.7141 H         1 <0>         0.3566
@<TRIPOS>BOND
     1    1    2 1
     2    1   37 1
     3    1   38 1
     4    1   39 1
     5    2    3 1
     6    2    4 1
     7    3   40 1
     8    3   41 1
     9    3   42 1
    10    4    5 1
    11    4   26 1
    12    4    6 1
    13    6    7 1
    14    6   23 1
    15    6    8 1
    16    8    9 1
    17    8   43 1
    18    8   44 1
    19    9   10 1
    20    9   20 1
    21    9   11 1
    22   11   12 1
    23   11   13 1
    24   11   36 1
    25   13   18 ar
    26   13   14 ar
    27   14   15 ar
    28   14   35 1
    29   15   16 ar
    30   15   45 1
    31   16   17 ar
    32   16   46 1
    33   17   18 ar
    34   17   34 1
    35   18   19 1
    36   19   20 1
    37   19   33 2
    38   20   21 2
    39   21   22 1
    40   21   23 1
    41   23   24 1
    42   23   32 1
    43   24   25 2
    44   24   31 1
    45   25   26 1
    46   25   28 1
    47   26   27 2
    48   28   29 2
    49   28   30 am
    50   30   47 1
    51   30   48 1
    52   32   49 1
    53   34   50 1
    54   36   51 1
@<TRIPOS>MOLECULE
ZINC18202350
   56    59     0     0     0
SMALL
USER_CHARGES

@<TRIPOS>ATOM
      1 C1         -0.5483    1.2743   -0.2270 C.3       1 <0>        -0.1900
      2 C2         -0.4683   -0.2530   -0.1826 C.3       1 <0>         0.1832
      3 C3          0.0112   -0.7636   -1.5145 C.ar      1 <0>        -0.0718
      4 C4         -0.1683   -0.0047   -2.6520 C.ar      1 <0>        -0.1402
      5 C5          0.2578   -0.4788   -3.8815 C.ar      1 <0>        -0.1078
      6 C6          0.8641   -1.7157   -3.9840 C.ar      1 <0>        -0.1591
      7 C7          1.0577   -2.4898   -2.8493 C.ar      1 <0>         0.1351
      8 C8          0.6362   -2.0078   -1.6041 C.ar      1 <0>        -0.1283
      9 C9          0.8726   -2.7957   -0.3781 C.2       1 <0>         0.4200
     10 C10         0.7170   -2.1630    0.8891 C.2       1 <0>        -0.4814
     11 C11         0.4886   -0.6751    0.9312 C.3       1 <0>         0.0035
     12 H1          1.4407   -0.1598    0.8039 H         1 <0>         0.0541
     13 C12        -0.1139   -0.2817    2.2834 C.3       1 <0>         0.1299
     14 H2         -1.1218   -0.6882    2.3667 H         1 <0>         0.1261
     15 C13         0.7634   -0.8542    3.3966 C.3       1 <0>        -0.1055
     16 H3          1.7937   -0.5697    3.1831 H         1 <0>         0.0940
     17 C14         0.3887   -0.2537    4.7377 C.3       1 <0>         0.0038
     18 H4          0.2941    0.8270    4.6319 H         1 <0>         0.1478
     19 C15        -0.9120   -0.8160    5.2372 C.2       1 <0>         0.3794
     20 O1         -1.6555   -0.1294    5.9073 O.2       1 <0>        -0.5242
     21 C16        -1.2782   -2.1923    4.9124 C.2       1 <0>        -0.5030
     22 C17        -0.5186   -2.9168    4.0293 C.2       1 <0>         0.3194
     23 C18         0.6938   -2.3649    3.3899 C.3       1 <0>         0.1315
     24 C19         0.7946   -2.9075    1.9961 C.2       1 <0>         0.2979
     25 O2          0.9756   -4.2352    1.8496 O.3       1 <0>        -0.5939
     26 O3          1.8249   -2.8568    4.1116 O.3       1 <0>        -0.5812
     27 O4         -0.8930   -4.1715    3.7387 O.3       1 <0>        -0.5121
     28 C20        -2.4640   -2.8030    5.5341 C.2       1 <0>         0.5851
     29 O5         -2.8371   -3.9051    5.1795 O.2       1 <0>        -0.5519
     30 N1         -3.1366   -2.1412    6.4964 N.am      1 <0>        -0.8771
     31 N2          1.4471   -0.5517    5.7118 N.4       1 <0>        -0.3724
     32 C21         2.6832    0.1374    5.3179 C.3       1 <0>        -0.0459
     33 C22         1.0317   -0.0896    7.0429 C.3       1 <0>        -0.0454
     34 O6         -0.1611    1.1425    2.3909 O.3       1 <0>        -0.5513
     35 O7          1.1959   -3.9677   -0.4487 O.2       1 <0>        -0.4712
     36 O8          1.6519   -3.7057   -2.9454 O.3       1 <0>        -0.4760
     37 O9         -1.7672   -0.7851    0.0853 O.3       1 <0>        -0.5325
     38 H5          0.4557    1.6881   -0.3211 H         1 <0>         0.0576
     39 H6         -1.1498    1.5819   -1.0824 H         1 <0>         0.0510
     40 H7         -1.0078    1.6409    0.6909 H         1 <0>         0.0962
     41 H8         -0.6425    0.9632   -2.5836 H         1 <0>         0.1257
     42 H9          0.1147    0.1229   -4.7669 H         1 <0>         0.1204
     43 H10         1.1871   -2.0803   -4.9478 H         1 <0>         0.1235
     44 H11        -2.8818   -1.2350    6.7305 H         1 <0>         0.3986
     45 H12        -3.8755   -2.5710    6.9549 H         1 <0>         0.3774
     46 H13         2.5293    1.2154    5.3657 H         1 <0>         0.1137
     47 H14         3.4885   -0.1450    5.9960 H         1 <0>         0.1165
     48 H15         2.9491   -0.1469    4.2998 H         1 <0>         0.1247
     49 H16         0.8554    0.9857    7.0156 H         1 <0>         0.1172
     50 H17         0.1146   -0.6009    7.3352 H         1 <0>         0.1241
     51 H18         1.8171   -0.3107    7.7657 H         1 <0>         0.1139
     52 H19         0.6926    1.5757    2.2546 H         1 <0>         0.3622
     53 H20         2.6140   -3.6818   -2.8513 H         1 <0>         0.3846
     54 H21        -2.4322   -0.5513   -0.5766 H         1 <0>         0.3647
     55 H22         1.8695   -3.8214    4.1631 H         1 <0>         0.4052
     56 H23         1.6104   -1.5471    5.7371 H         1 <0>         0.4342
@<TRIPOS>BOND
     1    1    2 1
     2    1   38 1
     3    1   39 1
     4    1   40 1
     5    2   11 1
     6    2    3 1
     7    2   37 1
     8    3    8 ar
     9    3    4 ar
    10    4    5 ar
    11    4   41 1
    12    5    6 ar
    13    5   42 1
    14    6    7 ar
    15    6   43 1
    16    7    8 ar
    17    7   36 1
    18    8    9 1
    19    9   10 1
    20    9   35 2
    21   10   24 2
    22   10   11 1
    23   11   12 1
    24   11   13 1
    25   13   14 1
    26   13   15 1
    27   13   34 1
    28   15   16 1
    29   15   23 1
    30   15   17 1
    31   17   18 1
    32   17   19 1
    33   17   31 1
    34   19   20 2
    35   19   21 1
    36   21   22 2
    37   21   28 1
    38   22   23 1
    39   22   27 1
    40   23   24 1
    41   23   26 1
    42   24   25 1
    43   26   55 1
    44   28   29 2
    45   28   30 am
    46   30   44 1
    47   30   45 1
    48   31   32 1
    49   31   33 1
    50   31   56 1
    51   32   46 1
    52   32   47 1
    53   32   48 1
    54   33   49 1
    55   33   50 1
    56   33   51 1
    57   34   52 1
    58   36   53 1
    59   37   54 1
@<TRIPOS>MOLECULE
ZINC18202350
   55    58     0     0     0
SMALL
USER_CHARGES

@<TRIPOS>ATOM
      1 C1         -0.5721    1.3570    0.0030 C.3       1 <0>        -0.1857
      2 C2         -0.5704   -0.1701    0.0971 C.3       1 <0>         0.1810
      3 C3         -0.1360   -0.7479   -1.2227 C.ar      1 <0>        -0.0682
      4 C4         -0.2915   -0.0181   -2.3826 C.ar      1 <0>        -0.1413
      5 C5          0.0929   -0.5535   -3.6007 C.ar      1 <0>        -0.1155
      6 C6          0.6331   -1.8228   -3.6692 C.ar      1 <0>        -0.1628
      7 C7          0.8020   -2.5686   -2.5119 C.ar      1 <0>         0.1295
      8 C8          0.4228   -2.0252   -1.2785 C.ar      1 <0>        -0.1189
      9 C9          0.6349   -2.7840   -0.0299 C.2       1 <0>         0.4115
     10 C10         0.5294   -2.1032    1.2174 C.2       1 <0>        -0.4838
     11 C11         0.3785   -0.6049    1.2128 C.3       1 <0>         0.0030
     12 H1          1.3541   -0.1442    1.0572 H         1 <0>         0.0478
     13 C12        -0.1845   -0.1370    2.5583 C.3       1 <0>         0.1227
     14 H2         -1.2108   -0.4877    2.6670 H         1 <0>         0.1145
     15 C13         0.6771   -0.7178    3.6793 C.3       1 <0>        -0.0757
     16 H3          1.7178   -0.4944    3.4443 H         1 <0>         0.0718
     17 C14         0.3521   -0.0554    5.0042 C.3       1 <0>         0.0676
     18 H4          0.3119    1.0247    4.8637 H         1 <0>         0.0567
     19 C15        -0.9689   -0.5328    5.5374 C.2       1 <0>         0.4193
     20 O1         -1.6669    0.2129    6.1932 O.2       1 <0>        -0.5644
     21 C16        -1.4100   -1.8981    5.2628 C.2       1 <0>        -0.5134
     22 C17        -0.7007   -2.6893    4.3952 C.2       1 <0>         0.3377
     23 C18         0.5297   -2.2223    3.7236 C.3       1 <0>         0.1506
     24 C19         0.5835   -2.8144    2.3475 C.2       1 <0>         0.3043
     25 O2          0.6938   -4.1537    2.2429 O.3       1 <0>        -0.6032
     26 O3          1.6437   -2.7485    4.4477 O.3       1 <0>        -0.5379
     27 O4         -1.1432   -3.9317    4.1509 O.3       1 <0>        -0.5646
     28 C20        -2.6171   -2.4258    5.9185 C.2       1 <0>         0.5847
     29 O5         -3.0490   -3.5197    5.6079 O.2       1 <0>        -0.5729
     30 N1         -3.2441   -1.6971    6.8631 N.am      1 <0>        -0.8817
     31 N2          1.4069   -0.3762    5.9750 N.3       1 <0>        -0.5076
     32 C21         2.6778    0.2581    5.6003 C.3       1 <0>         0.0322
     33 C22         1.0063    0.0103    7.3345 C.3       1 <0>         0.0303
     34 O6         -0.1568    1.2904    2.6190 O.3       1 <0>        -0.5559
     35 O7          0.8964   -3.9730   -0.0655 O.2       1 <0>        -0.4844
     36 O8          1.3314   -3.8163   -2.5747 O.3       1 <0>        -0.4764
     37 O9         -1.8912   -0.6250    0.3979 O.3       1 <0>        -0.5271
     38 H5          0.4531    1.7170   -0.0831 H         1 <0>         0.0561
     39 H6         -1.1406    1.6664   -0.8740 H         1 <0>         0.0451
     40 H7         -1.0301    1.7757    0.8991 H         1 <0>         0.0963
     41 H8         -0.7143    0.9748   -2.3407 H         1 <0>         0.1242
     42 H9         -0.0310    0.0258   -4.5038 H         1 <0>         0.1161
     43 H10         0.9239   -2.2349   -4.6242 H         1 <0>         0.1192
     44 H11        -2.9434   -0.7960    7.0595 H         1 <0>         0.3993
     45 H12        -3.9960   -2.0737    7.3466 H         1 <0>         0.3655
     46 H13         2.5637    1.3419    5.6235 H         1 <0>         0.0106
     47 H14         3.4545   -0.0406    6.3044 H         1 <0>         0.0594
     48 H15         2.9583   -0.0563    4.5951 H         1 <0>         0.0712
     49 H16         0.1631   -0.6027    7.6529 H         1 <0>         0.0701
     50 H17         1.8431   -0.1405    8.0165 H         1 <0>         0.0546
     51 H18         0.7155    1.0607    7.3428 H         1 <0>         0.0196
     52 H19         0.7168    1.6740    2.4611 H         1 <0>         0.3562
     53 H20         2.2946   -3.8393   -2.4928 H         1 <0>         0.3824
     54 H21        -2.5522   -0.3786   -0.2635 H         1 <0>         0.3569
     55 H22         1.6785   -3.7147    4.4681 H         1 <0>         0.3733
@<TRIPOS>BOND
     1    1    2 1
     2    1   38 1
     3    1   39 1
     4    1   40 1
     5    2   11 1
     6    2    3 1
     7    2   37 1
     8    3    8 ar
     9    3    4 ar
    10    4    5 ar
    11    4   41 1
    12    5    6 ar
    13    5   42 1
    14    6    7 ar
    15    6   43 1
    16    7    8 ar
    17    7   36 1
    18    8    9 1
    19    9   10 1
    20    9   35 2
    21   10   24 2
    22   10   11 1
    23   11   12 1
    24   11   13 1
    25   13   14 1
    26   13   15 1
    27   13   34 1
    28   15   16 1
    29   15   23 1
    30   15   17 1
    31   17   18 1
    32   17   19 1
    33   17   31 1
    34   19   20 2
    35   19   21 1
    36   21   22 2
    37   21   28 1
    38   22   23 1
    39   22   27 1
    40   23   24 1
    41   23   26 1
    42   24   25 1
    43   26   55 1
    44   28   29 2
    45   28   30 am
    46   30   44 1
    47   30   45 1
    48   31   32 1
    49   31   33 1
    50   32   46 1
    51   32   47 1
    52   32   48 1
    53   33   49 1
    54   33   50 1
    55   33   51 1
    56   34   52 1
    57   36   53 1
    58   37   54 1
@<TRIPOS>MOLECULE
ZINC03607120
   50    53     0     0     0
SMALL
USER_CHARGES

@<TRIPOS>ATOM
      1 C1         -1.9629    1.9071    1.0651 C.3       1 <0>        -0.1825
      2 C2         -1.3410    0.6063    0.5532 C.3       1 <0>         0.0155
      3 H1         -1.0256    0.7369   -0.4819 H         1 <0>         0.1457
      4 C3         -2.3756   -0.5210    0.6337 C.3       1 <0>         0.0593
      5 N1         -1.7192   -1.7839    0.2616 N.pl3     1 <0>        -0.6066
      6 C4         -0.4542   -2.1302    0.9277 C.3       1 <0>         0.0712
      7 C5          0.4898   -0.9269    0.8333 C.3       1 <0>        -0.0219
      8 N2         -0.1773    0.2615    1.3798 N.4       1 <0>        -0.5060
      9 C6         -2.2567   -2.5930   -0.6546 C.2       1 <0>         0.2448
     10 C7         -3.0907   -2.0586   -1.6661 C.2       1 <0>         0.0267
     11 C8         -3.6408   -2.8722   -2.6012 C.2       1 <0>        -0.0085
     12 C9         -3.3846   -4.2586   -2.5705 C.2       1 <0>        -0.1429
     13 C10        -2.5506   -4.8072   -1.5623 C.2       1 <0>         0.2277
     14 C11        -1.9877   -3.9744   -0.6154 C.2       1 <0>        -0.0045
     15 O1         -1.1805   -4.4876    0.3549 O.3       1 <0>        -0.3077
     16 C12        -1.6957   -4.5007    1.6877 C.3       1 <0>         0.0036
     17 N3         -2.3028   -6.1668   -1.5378 N.pl3     1 <0>        -0.3990
     18 C13        -2.8385   -6.9837   -2.4549 C.2       1 <0>         0.2488
     19 C14        -3.6594   -6.4987   -3.4599 C.2       1 <0>        -0.2886
     20 C15        -3.9469   -5.1135   -3.5318 C.2       1 <0>         0.3591
     21 O2         -4.7454   -4.6254   -4.5048 O.3       1 <0>        -0.4269
     22 C16        -4.2309   -7.4202   -4.4506 C.2       1 <0>         0.5375
     23 O3         -4.0831   -8.6280   -4.3197 O.co2     1 <0>        -0.6304
     24 O4         -4.8549   -6.9802   -5.4071 O.co2     1 <0>        -0.6499
     25 C17        -1.4403   -6.7236   -0.4926 C.3       1 <0>         0.0037
     26 C18        -1.1776   -8.2306   -0.5219 C.3       1 <0>        -0.1701
     27 C19        -2.0918   -7.6341    0.5502 C.3       1 <0>        -0.1695
     28 F1         -3.3402   -0.7312   -1.6996 F         1 <0>        -0.1155
     29 H2         -1.2267    2.7089    1.0080 H         1 <0>         0.0909
     30 H3         -2.8269    2.1628    0.4516 H         1 <0>         0.1125
     31 H4         -2.2782    1.7763    2.1003 H         1 <0>         0.0855
     32 H5         -2.7596   -0.5938    1.6513 H         1 <0>         0.1016
     33 H6         -3.1944   -0.3166   -0.0561 H         1 <0>         0.1596
     34 H7         -0.6441   -2.3655    1.9749 H         1 <0>         0.1014
     35 H8         -0.0026   -2.9897    0.4323 H         1 <0>         0.1553
     36 H9          1.3957   -1.1300    1.4044 H         1 <0>         0.1516
     37 H10         0.7499   -0.7500   -0.2103 H         1 <0>         0.1375
     38 H11         0.4698    1.0357    1.3869 H         1 <0>         0.4352
     39 H12        -4.2761   -2.4580   -3.3701 H         1 <0>         0.1787
     40 H13        -0.9190   -4.8376    2.3742 H         1 <0>         0.1111
     41 H14        -2.0139   -3.4955    1.9641 H         1 <0>         0.0542
     42 H15        -2.5473   -5.1789    1.7414 H         1 <0>         0.0640
     43 H16        -2.6258   -8.0416   -2.4099 H         1 <0>         0.2115
     44 H17        -0.6284   -6.0772   -0.1594 H         1 <0>         0.1887
     45 H18        -1.6465   -8.8078   -1.3188 H         1 <0>         0.1175
     46 H19        -0.1926   -8.5759   -0.2081 H         1 <0>         0.1294
     47 H20        -1.7081   -7.5871    1.5694 H         1 <0>         0.1215
     48 H21        -3.1621   -7.8189    0.4586 H         1 <0>         0.1095
     49 H22        -0.4808    0.0713    2.3231 H         1 <0>         0.4268
     50 H23        -5.1481   -5.3059   -5.0615 H         1 <0>         0.4428
@<TRIPOS>BOND
     1    1    2 1
     2    1   29 1
     3    1   30 1
     4    1   31 1
     5    2    3 1
     6    2    8 1
     7    2    4 1
     8    4    5 1
     9    4   32 1
    10    4   33 1
    11    5    6 1
    12    5    9 2
    13    6    7 1
    14    6   34 1
    15    6   35 1
    16    7    8 1
    17    7   36 1
    18    7   37 1
    19    8   38 1
    20    8   49 1
    21    9   14 1
    22    9   10 1
    23   10   11 2
    24   10   28 1
    25   11   12 1
    26   11   39 1
    27   12   20 2
    28   12   13 1
    29   13   14 2
    30   13   17 1
    31   14   15 1
    32   15   16 1
    33   16   40 1
    34   16   41 1
    35   16   42 1
    36   17   18 1
    37   17   25 1
    38   18   19 2
    39   18   43 1
    40   19   20 1
    41   19   22 1
    42   20   21 1
    43   21   50 1
    44   22   23 2
    45   22   24 1
    46   25   27 1
    47   25   26 1
    48   25   44 1
    49   26   27 1
    50   26   45 1
    51   26   46 1
    52   27   47 1
    53   27   48 1
@<TRIPOS>MOLECULE
ZINC18210358
   55    58     0     0     0
SMALL
USER_CHARGES

@<TRIPOS>ATOM
      1 C1          0.5631    2.2436    0.6418 C.3       1 <0>        -0.1792
      2 C2          0.4046    0.7315    0.4709 C.3       1 <0>         0.1782
      3 C3          1.1360    0.2929   -0.7690 C.ar      1 <0>        -0.0713
      4 C4          1.3733    1.1924   -1.7870 C.ar      1 <0>        -0.1408
      5 C5          2.0321    0.7879   -2.9362 C.ar      1 <0>        -0.1088
      6 C6          2.4560   -0.5190   -3.0777 C.ar      1 <0>        -0.1589
      7 C7          2.2308   -1.4357   -2.0613 C.ar      1 <0>         0.1345
      8 C8          1.5739   -1.0259   -0.8947 C.ar      1 <0>        -0.1255
      9 C9          1.3637   -1.9737    0.2176 C.2       1 <0>         0.4165
     10 C10         0.9760   -1.4670    1.4917 C.2       1 <0>        -0.4793
     11 C11         0.9645    0.0238    1.7039 C.3       1 <0>         0.0290
     12 H1          1.9814    0.3702    1.8885 H         1 <0>         0.0515
     13 C12         0.0932    0.3677    2.9159 C.3       1 <0>        -0.0961
     14 C13         0.5552   -0.4725    4.1064 C.3       1 <0>        -0.0761
     15 H2          1.6356   -0.3564    4.1919 H         1 <0>         0.0944
     16 C14        -0.0655    0.0340    5.3939 C.3       1 <0>         0.0043
     17 H3          0.0297    1.1190    5.4342 H         1 <0>         0.1371
     18 C15        -1.5192   -0.3367    5.4757 C.2       1 <0>         0.3738
     19 O1         -2.3035    0.3942    6.0448 O.2       1 <0>        -0.5294
     20 C16        -1.9846   -1.5804    4.8670 C.2       1 <0>        -0.4991
     21 C17        -1.1348   -2.3278    4.0918 C.2       1 <0>         0.3226
     22 C18         0.2698   -1.9359    3.8533 C.3       1 <0>         0.1305
     23 C19         0.6514   -2.3307    2.4584 C.2       1 <0>         0.2993
     24 O2          0.6679   -3.6449    2.1590 O.3       1 <0>        -0.5990
     25 O3          1.0883   -2.6998    4.7413 O.3       1 <0>        -0.5833
     26 O4         -1.5993   -3.4548    3.5323 O.3       1 <0>        -0.5131
     27 C20        -3.3677   -2.0326    5.0861 C.2       1 <0>         0.5844
     28 O5         -3.7231   -3.1223    4.6788 O.2       1 <0>        -0.5544
     29 N1         -4.2407   -1.2394    5.7382 N.am      1 <0>        -0.8768
     30 N2          0.6460   -0.5550    6.5362 N.4       1 <0>        -0.3709
     31 C21         2.0717   -0.2100    6.4557 C.3       1 <0>        -0.0465
     32 C22         0.0846   -0.0280    7.7873 C.3       1 <0>        -0.0456
     33 O6          1.5189   -3.1698    0.0488 O.2       1 <0>        -0.4740
     34 O7          2.6443   -2.7208   -2.1967 O.3       1 <0>        -0.4760
     35 O8         -0.9824    0.4155    0.3355 O.3       1 <0>        -0.5306
     36 H4          1.6194    2.4878    0.7550 H         1 <0>         0.0642
     37 H5          0.1647    2.7522   -0.2361 H         1 <0>         0.0571
     38 H6          0.0181    2.5682    1.5282 H         1 <0>         0.0662
     39 H7          1.0445    2.2164   -1.6877 H         1 <0>         0.1239
     40 H8          2.2154    1.4995   -3.7276 H         1 <0>         0.1200
     41 H9          2.9626   -0.8274   -3.9803 H         1 <0>         0.1232
     42 H10         0.1982    1.4264    3.1530 H         1 <0>         0.0614
     43 H11        -0.9496    0.1426    2.6922 H         1 <0>         0.0894
     44 H12         0.9764   -3.6563    4.6546 H         1 <0>         0.4030
     45 H13        -3.9803   -0.3418    5.9974 H         1 <0>         0.4003
     46 H14        -5.1295   -1.5663    5.9483 H         1 <0>         0.3763
     47 H15         2.5208   -0.7182    5.6024 H         1 <0>         0.1317
     48 H16         2.1784    0.8679    6.3341 H         1 <0>         0.1122
     49 H17         2.5736   -0.5239    7.3710 H         1 <0>         0.1147
     50 H18        -0.9733   -0.2839    7.8470 H         1 <0>         0.1243
     51 H19         0.6125   -0.4650    8.6349 H         1 <0>         0.1137
     52 H20         0.1979    1.0559    7.8082 H         1 <0>         0.1152
     53 H21         3.5411   -2.8816   -1.8728 H         1 <0>         0.3846
     54 H22        -1.4095    0.8367   -0.4229 H         1 <0>         0.3624
     55 H23         0.5411   -1.5583    6.5168 H         1 <0>         0.4347
@<TRIPOS>BOND
     1    1    2 1
     2    1   36 1
     3    1   37 1
     4    1   38 1
     5    2   11 1
     6    2    3 1
     7    2   35 1
     8    3    8 ar
     9    3    4 ar
    10    4    5 ar
    11    4   39 1
    12    5    6 ar
    13    5   40 1
    14    6    7 ar
    15    6   41 1
    16    7    8 ar
    17    7   34 1
    18    8    9 1
    19    9   10 1
    20    9   33 2
    21   10   23 2
    22   10   11 1
    23   11   12 1
    24   11   13 1
    25   13   14 1
    26   13   42 1
    27   13   43 1
    28   14   15 1
    29   14   22 1
    30   14   16 1
    31   16   17 1
    32   16   18 1
    33   16   30 1
    34   18   19 2
    35   18   20 1
    36   20   21 2
    37   20   27 1
    38   21   22 1
    39   21   26 1
    40   22   23 1
    41   22   25 1
    42   23   24 1
    43   25   44 1
    44   27   28 2
    45   27   29 am
    46   29   45 1
    47   29   46 1
    48   30   31 1
    49   30   32 1
    50   30   55 1
    51   31   47 1
    52   31   48 1
    53   31   49 1
    54   32   50 1
    55   32   51 1
    56   32   52 1
    57   34   53 1
    58   35   54 1
@<TRIPOS>MOLECULE
ZINC13523533
   49    51     0     0     0
SMALL
USER_CHARGES

@<TRIPOS>ATOM
      1 C1         -0.4453    1.6749    0.1421 C.2       1 <0>         0.0404
      2 C2          0.8516    1.9789   -0.0562 C.2       1 <0>         0.0462
      3 N1          1.5123    0.8377   -0.3018 N.pl3     1 <0>        -0.4681
      4 C3          0.6742   -0.1618   -0.2632 C.cat     1 <0>         0.3150
      5 N2         -0.5584    0.3171    0.0109 N.pl3     1 <0>        -0.5015
      6 H1         -1.3719   -0.2038    0.0988 H         1 <0>         0.4655
      7 C4          1.4547    3.3591   -0.0103 C.3       1 <0>        -0.0705
      8 C5          1.7975    3.7180    1.4369 C.3       1 <0>         0.1378
      9 H2          2.4502    2.9524    1.8563 H         1 <0>         0.1159
     10 C6          2.5000    5.0508    1.4711 C.2       1 <0>         0.5367
     11 O1          1.8601    6.0700    1.6217 O.2       1 <0>        -0.5052
     12 N3          3.8395    5.1102    1.3343 N.am      1 <0>        -0.5970
     13 C7          4.7247    3.9684    1.0407 C.3       1 <0>         0.0927
     14 C8          5.9795    4.5977    0.3856 C.3       1 <0>        -0.1315
     15 C9          6.1249    5.9148    1.1926 C.3       1 <0>        -0.1270
     16 C10         4.6593    6.3255    1.4469 C.3       1 <0>         0.1175
     17 H3          4.3427    7.0564    0.7028 H         1 <0>         0.1113
     18 C11         4.5256    6.9075    2.8305 C.2       1 <0>         0.5109
     19 O2          3.8154    6.3652    3.6505 O.2       1 <0>        -0.5290
     20 N4          5.1953    8.0307    3.1567 N.am      1 <0>        -0.8492
     21 N5          0.5655    3.7951    2.2259 N.am      1 <0>        -0.7083
     22 C12         0.0388    2.6772    2.7639 C.2       1 <0>         0.5070
     23 O3          0.5848    1.6075    2.5949 O.2       1 <0>        -0.5324
     24 C13        -1.2285    2.7565    3.5755 C.3       1 <0>         0.1145
     25 H4         -1.9321    3.4460    3.1089 H         1 <0>         0.1195
     26 C14        -0.9121    3.2101    5.0179 C.3       1 <0>        -0.1221
     27 C15        -0.7639    1.8557    5.7490 C.3       1 <0>        -0.1588
     28 C16        -1.5814    0.8931    4.9162 C.2       1 <0>         0.5297
     29 O4         -1.9571   -0.1992    5.2857 O.2       1 <0>        -0.5148
     30 N6         -1.8325    1.4252    3.7053 N.am      1 <0>        -0.7164
     31 H5         -1.2421    2.3687    0.3662 H         1 <0>         0.2147
     32 H6          0.9247   -1.1999   -0.4243 H         1 <0>         0.2644
     33 H7          2.3618    3.3795   -0.6143 H         1 <0>         0.1112
     34 H8          0.7396    4.0814   -0.4042 H         1 <0>         0.1252
     35 H9          4.9960    3.4522    1.9615 H         1 <0>         0.0794
     36 H10         4.2396    3.2807    0.3480 H         1 <0>         0.0754
     37 H11         6.8524    3.9588    0.5199 H         1 <0>         0.0969
     38 H12         5.8070    4.8037   -0.6708 H         1 <0>         0.0864
     39 H13         6.6476    5.7357    2.1322 H         1 <0>         0.0877
     40 H14         6.6388    6.6738    0.6028 H         1 <0>         0.1012
     41 H15         5.7634    8.4644    2.5009 H         1 <0>         0.4038
     42 H16         5.1093    8.4053    4.0473 H         1 <0>         0.4081
     43 H17         0.1288    4.6506    2.3610 H         1 <0>         0.4212
     44 H18         0.0185    3.7765    5.0534 H         1 <0>         0.0985
     45 H19        -1.7360    3.7900    5.4340 H         1 <0>         0.1053
     46 H20         0.2812    1.5473    5.7726 H         1 <0>         0.1082
     47 H21        -1.1660    1.9220    6.7600 H         1 <0>         0.1137
     48 H22        -2.3459    0.9868    3.0088 H         1 <0>         0.4083
     49 H23         2.4631    0.7667   -0.4803 H         1 <0>         0.4616
@<TRIPOS>BOND
     1    1    5 1
     2    1    2 2
     3    1   31 1
     4    2    3 1
     5    2    7 1
     6    3    4 2
     7    3   49 1
     8    4    5 1
     9    4   32 1
    10    5    6 1
    11    7    8 1
    12    7   33 1
    13    7   34 1
    14    8    9 1
    15    8   10 1
    16    8   21 1
    17   10   11 2
    18   10   12 am
    19   12   16 1
    20   12   13 1
    21   13   14 1
    22   13   35 1
    23   13   36 1
    24   14   15 1
    25   14   37 1
    26   14   38 1
    27   15   16 1
    28   15   39 1
    29   15   40 1
    30   16   17 1
    31   16   18 1
    32   18   19 2
    33   18   20 am
    34   20   41 1
    35   20   42 1
    36   21   22 am
    37   21   43 1
    38   22   23 2
    39   22   24 1
    40   24   25 1
    41   24   30 1
    42   24   26 1
    43   26   27 1
    44   26   44 1
    45   26   45 1
    46   27   28 1
    47   27   46 1
    48   27   47 1
    49   28   29 2
    50   28   30 am
    51   30   48 1
@<TRIPOS>MOLECULE
ZINC13523529
   49    51     0     0     0
SMALL
USER_CHARGES

@<TRIPOS>ATOM
      1 C1         -0.0165    1.3646    0.0095 C.2       1 <0>         0.0531
      2 C2          1.2671    1.7717   -0.0005 C.2       1 <0>         0.0433
      3 N1          2.0482    0.6814   -0.0138 N.pl3     1 <0>        -0.4756
      4 C3          1.2973   -0.3859   -0.0124 C.cat     1 <0>         0.3034
      5 N2          0.0021   -0.0041    0.0020 N.pl3     1 <0>        -0.4966
      6 H1         -0.7708   -0.5902    0.0065 H         1 <0>         0.4672
      7 C4          1.7427    3.2017    0.0026 C.3       1 <0>        -0.0778
      8 C5          1.7980    3.7176    1.4420 C.3       1 <0>         0.1368
      9 H2          0.8250    3.5821    1.9142 H         1 <0>         0.1266
     10 C6          2.1547    5.1818    1.4374 C.2       1 <0>         0.5347
     11 O1          3.1572    5.5635    2.0032 O.2       1 <0>        -0.5037
     12 N3          1.3595    6.0671    0.8046 N.am      1 <0>        -0.5969
     13 C7          0.1139    5.7427    0.0860 C.3       1 <0>         0.0872
     14 C8         -0.7047    7.0578    0.0975 C.3       1 <0>        -0.1322
     15 C9          0.4120    8.1212   -0.0748 C.3       1 <0>        -0.1268
     16 C10         1.5874    7.5172    0.7220 C.3       1 <0>         0.1171
     17 H3          1.6175    7.9454    1.7239 H         1 <0>         0.1099
     18 C11         2.8841    7.7922    0.0049 C.2       1 <0>         0.5133
     19 O2          3.5595    6.8706   -0.4016 O.2       1 <0>        -0.5308
     20 N4          3.2931    9.0623   -0.1846 N.am      1 <0>        -0.8496
     21 N5          2.8121    2.9703    2.1899 N.am      1 <0>        -0.7101
     22 C12         2.4954    1.7915    2.7614 C.2       1 <0>         0.5004
     23 O3          1.3710    1.3494    2.6565 O.2       1 <0>        -0.5268
     24 C13         3.5386    1.0228    3.5308 C.3       1 <0>         0.1113
     25 H4          4.1423    1.7039    4.1306 H         1 <0>         0.1247
     26 C14         4.4377    0.2243    2.5610 C.3       1 <0>        -0.1232
     27 C15         3.7301   -1.1503    2.5346 C.3       1 <0>        -0.1580
     28 C16         2.9870   -1.2104    3.8509 C.2       1 <0>         0.5237
     29 O4          2.5365   -2.2204    4.3487 O.2       1 <0>        -0.5104
     30 N6          2.8991    0.0198    4.3904 N.am      1 <0>        -0.7080
     31 H5         -0.8922    1.9965    0.0253 H         1 <0>         0.2233
     32 H6          1.6529   -1.4057   -0.0218 H         1 <0>         0.2614
     33 H7          2.7369    3.2550   -0.4409 H         1 <0>         0.1100
     34 H8          1.0529    3.8153   -0.5770 H         1 <0>         0.1298
     35 H9          0.3341    5.4419   -0.9383 H         1 <0>         0.0802
     36 H10        -0.4292    4.9532    0.6056 H         1 <0>         0.0843
     37 H11        -1.4058    7.0889   -0.7364 H         1 <0>         0.0973
     38 H12        -1.2237    7.1866    1.0473 H         1 <0>         0.0874
     39 H13         0.6739    8.2384   -1.1263 H         1 <0>         0.0876
     40 H14         0.1064    9.0746    0.3563 H         1 <0>         0.1005
     41 H15         2.7529    9.7995    0.1405 H         1 <0>         0.4041
     42 H16         4.1277    9.2394   -0.6462 H         1 <0>         0.4077
     43 H17         3.7115    3.3239    2.2738 H         1 <0>         0.4208
     44 H18         4.4435    0.6792    1.5705 H         1 <0>         0.0827
     45 H19         5.4507    0.1341    2.9531 H         1 <0>         0.1143
     46 H20         3.0317   -1.2038    1.6994 H         1 <0>         0.0849
     47 H21         4.4625   -1.9552    2.4728 H         1 <0>         0.1199
     48 H22         2.4696    0.2185    5.2372 H         1 <0>         0.4212
     49 H23         3.0181    0.6856   -0.0234 H         1 <0>         0.4563
@<TRIPOS>BOND
     1    1    5 1
     2    1    2 2
     3    1   31 1
     4    2    3 1
     5    2    7 1
     6    3    4 2
     7    3   49 1
     8    4    5 1
     9    4   32 1
    10    5    6 1
    11    7    8 1
    12    7   33 1
    13    7   34 1
    14    8    9 1
    15    8   10 1
    16    8   21 1
    17   10   11 2
    18   10   12 am
    19   12   16 1
    20   12   13 1
    21   13   14 1
    22   13   35 1
    23   13   36 1
    24   14   15 1
    25   14   37 1
    26   14   38 1
    27   15   16 1
    28   15   39 1
    29   15   40 1
    30   16   17 1
    31   16   18 1
    32   18   19 2
    33   18   20 am
    34   20   41 1
    35   20   42 1
    36   21   22 am
    37   21   43 1
    38   22   23 2
    39   22   24 1
    40   24   25 1
    41   24   30 1
    42   24   26 1
    43   26   27 1
    44   26   44 1
    45   26   45 1
    46   27   28 1
    47   27   46 1
    48   27   47 1
    49   28   29 2
    50   28   30 am
    51   30   48 1
@<TRIPOS>MOLECULE
ZINC19796168
   62    65     0     0     0
SMALL
USER_CHARGES

@<TRIPOS>ATOM
      1 C1         -0.0187    1.5258    0.0104 C.3       1 <0>        -0.1485
      2 C2          0.0021   -0.0041    0.0020 C.3       1 <0>        -0.1148
      3 C3         -1.4333   -0.5336    0.0129 C.3       1 <0>        -0.0265
      4 C4         -1.4129   -2.0405    0.0046 C.2       1 <0>         0.0755
      5 C5         -1.4070   -2.8569   -1.1475 C.ar      1 <0>         0.0668
      6 C6         -1.3869   -4.1920   -0.7014 C.ar      1 <0>        -0.0515
      7 C7         -1.3777   -5.2165   -1.6565 C.ar      1 <0>         0.4648
      8 O1         -1.3588   -6.5164   -1.2751 O.3       1 <0>        -0.6909
      9 N1         -1.3884   -4.8893   -2.9402 N.ar      1 <0>        -0.5725
     10 C8         -1.4074   -3.6162   -3.3266 C.ar      1 <0>         0.3612
     11 N2         -1.4163   -2.6161   -2.4630 N.ar      1 <0>        -0.5554
     12 C9         -1.4186   -3.3091   -4.7764 C.ar      1 <0>        -0.0636
     13 C10        -1.4328   -1.9850   -5.2116 C.ar      1 <0>         0.0543
     14 C11        -1.4432   -1.7045   -6.5622 C.ar      1 <0>        -0.7317
     15 C12        -1.4396   -2.7334   -7.4883 C.ar      1 <0>         0.0205
     16 C13        -1.4256   -4.0494   -7.0685 C.ar      1 <0>        -0.2451
     17 C14        -1.4092   -4.3463   -5.7145 C.ar      1 <0>         0.2216
     18 O2         -1.3897   -5.6394   -5.3005 O.3       1 <0>        -0.2427
     19 C15        -1.3811   -6.6454   -6.3153 C.3       1 <0>         0.0442
     20 C16        -1.3591   -8.0288   -5.6620 C.3       1 <0>        -0.1464
     21 S1         -1.4617   -0.0302   -7.1108 S.o2      1 <0>         2.6962
     22 O3         -2.0201   -0.0370   -8.4174 O.2       1 <0>        -0.9629
     23 O4         -2.0135    0.7385   -6.0505 O.2       1 <0>        -0.9522
     24 N3          0.1150    0.4496   -7.2724 N.pl3     1 <0>        -1.0004
     25 C17         0.8390    1.0557   -6.1447 C.3       1 <0>         0.1268
     26 C18         2.1670    0.3130   -5.9632 C.3       1 <0>         0.0372
     27 N4          2.8976    0.3041   -7.2376 N.3       1 <0>        -0.5398
     28 C19         2.1569   -0.4314   -8.2713 C.3       1 <0>         0.0376
     29 C20         0.8304    0.2753   -8.5456 C.3       1 <0>         0.1276
     30 C21         4.2487   -0.2463   -7.0660 C.3       1 <0>         0.0248
     31 N5         -1.3812   -4.1504    0.6672 N.pl3     1 <0>        -0.3678
     32 N6         -1.3920   -2.8055    1.0596 N.2       1 <0>        -0.2631
     33 C22        -1.3618   -5.3088    1.5638 C.3       1 <0>         0.1224
     34 H1          1.0039    1.9031    0.0027 H         1 <0>         0.0507
     35 H2         -0.5459    1.8868   -0.8726 H         1 <0>         0.0575
     36 H3         -0.5289    1.8773    0.9072 H         1 <0>         0.0512
     37 H4          0.5123   -0.3556   -0.8948 H         1 <0>         0.0656
     38 H5          0.5293   -0.3651    0.8851 H         1 <0>         0.0578
     39 H6         -1.9435   -0.1821    0.9097 H         1 <0>         0.0708
     40 H7         -1.9605   -0.1726   -0.8702 H         1 <0>         0.0861
     41 H8         -1.4360   -1.1795   -4.4922 H         1 <0>         0.1566
     42 H9         -1.4482   -2.5062   -8.5441 H         1 <0>         0.1359
     43 H10        -1.4233   -4.8477   -7.7959 H         1 <0>         0.1361
     44 H11        -2.2755   -6.5484   -6.9307 H         1 <0>         0.0581
     45 H12        -0.4957   -6.5243   -6.9395 H         1 <0>         0.0570
     46 H13        -1.3526   -8.7961   -6.4360 H         1 <0>         0.0694
     47 H14        -0.4647   -8.1258   -5.0466 H         1 <0>         0.0690
     48 H15        -2.2445   -8.1499   -5.0378 H         1 <0>         0.0696
     49 H16         1.0335    2.1070   -6.3571 H         1 <0>         0.0814
     50 H17         0.2427    0.9670   -5.2366 H         1 <0>         0.0979
     51 H18         2.7652    0.8176   -5.2045 H         1 <0>         0.0879
     52 H19         1.9704   -0.7122   -5.6495 H         1 <0>         0.0449
     53 H20         2.7478   -0.4666   -9.1865 H         1 <0>         0.0858
     54 H21         1.9605   -1.4462   -7.9254 H         1 <0>         0.0417
     55 H22         0.2284   -0.3292   -9.2240 H         1 <0>         0.0922
     56 H23         1.0240    1.2501   -8.9932 H         1 <0>         0.0807
     57 H24         4.1801   -1.2690   -6.6954 H         1 <0>         0.0264
     58 H25         4.7675   -0.2413   -8.0246 H         1 <0>         0.0675
     59 H26         4.8011    0.3631   -6.3508 H         1 <0>         0.0692
     60 H27        -0.3294   -5.5825    1.7815 H         1 <0>         0.0592
     61 H28        -1.8748   -5.0582    2.4923 H         1 <0>         0.0722
     62 H29        -1.8667   -6.1476    1.0847 H         1 <0>         0.0961
@<TRIPOS>BOND
     1    1    2 1
     2    1   34 1
     3    1   35 1
     4    1   36 1
     5    2    3 1
     6    2   37 1
     7    2   38 1
     8    3    4 1
     9    3   39 1
    10    3   40 1
    11    4   32 2
    12    4    5 1
    13    5   11 ar
    14    5    6 ar
    15    6    7 ar
    16    6   31 1
    17    7    8 1
    18    7    9 ar
    19    9   10 ar
    20   10   11 ar
    21   10   12 1
    22   12   17 ar
    23   12   13 ar
    24   13   14 ar
    25   13   41 1
    26   14   15 ar
    27   14   21 1
    28   15   16 ar
    29   15   42 1
    30   16   17 ar
    31   16   43 1
    32   17   18 1
    33   18   19 1
    34   19   20 1
    35   19   44 1
    36   19   45 1
    37   20   46 1
    38   20   47 1
    39   20   48 1
    40   21   22 2
    41   21   23 2
    42   21   24 1
    43   24   29 1
    44   24   25 1
    45   25   26 1
    46   25   49 1
    47   25   50 1
    48   26   27 1
    49   26   51 1
    50   26   52 1
    51   27   28 1
    52   27   30 1
    53   28   29 1
    54   28   53 1
    55   28   54 1
    56   29   55 1
    57   29   56 1
    58   30   57 1
    59   30   58 1
    60   30   59 1
    61   31   32 1
    62   31   33 1
    63   33   60 1
    64   33   61 1
    65   33   62 1
@<TRIPOS>MOLECULE
ZINC19796168
   64    67     0     0     0
SMALL
USER_CHARGES

@<TRIPOS>ATOM
      1 C1         -0.0187    1.5258    0.0104 C.3       1 <0>        -0.1524
      2 C2          0.0021   -0.0041    0.0020 C.3       1 <0>        -0.1163
      3 C3         -1.4333   -0.5336    0.0129 C.3       1 <0>        -0.0382
      4 C4         -1.4129   -2.0405    0.0046 C.2       1 <0>         0.1125
      5 C5         -1.4070   -2.8548   -1.1446 C.2       1 <0>         0.0358
      6 C6         -1.3861   -4.1841   -0.7032 C.2       1 <0>        -0.0303
      7 C7         -1.3769   -5.2214   -1.6643 C.2       1 <0>         0.5721
      8 O1         -1.3591   -6.3907   -1.3206 O.2       1 <0>        -0.5177
      9 N1         -1.3887   -4.8848   -2.9731 N.am      1 <0>        -0.6346
     10 H1         -1.3827   -5.5793   -3.6502 H         1 <0>         0.4185
     11 C8         -1.4095   -3.5686   -3.3476 C.2       1 <0>         0.3827
     12 N2         -1.4171   -2.5966   -2.4679 N.2       1 <0>        -0.4195
     13 C9         -1.4219   -3.2333   -4.7854 C.ar      1 <0>        -0.1025
     14 C10        -1.4183   -4.2493   -5.7432 C.ar      1 <0>         0.0333
     15 C11        -1.4299   -3.9298   -7.0842 C.ar      1 <0>        -0.7276
     16 C12        -1.4448   -2.6046   -7.4863 C.ar      1 <0>         0.0370
     17 C13        -1.4485   -1.5903   -6.5488 C.ar      1 <0>        -0.2285
     18 C14        -1.4433   -1.8942   -5.1961 C.ar      1 <0>         0.2470
     19 O2         -1.4527   -0.8984   -4.2738 O.3       1 <0>        -0.2539
     20 C15        -1.4745    0.4426   -4.7671 C.3       1 <0>         0.0414
     21 C16        -1.4823    1.4191   -3.5893 C.3       1 <0>        -0.1545
     22 S1         -1.4253   -5.2129   -8.2917 S.o2      1 <0>         2.6914
     23 O3         -0.8874   -4.6500   -9.4805 O.2       1 <0>        -0.9316
     24 O4         -0.8594   -6.3568   -7.6667 O.2       1 <0>        -0.9334
     25 N3         -3.0059   -5.5847   -8.6172 N.pl3     1 <0>        -1.0127
     26 C17        -3.7155   -6.6148   -7.8430 C.3       1 <0>         0.0947
     27 C18        -5.0462   -6.0287   -7.3599 C.3       1 <0>        -0.0248
     28 N4         -5.7976   -5.5098   -8.5098 N.4       1 <0>        -0.3832
     29 C19        -5.0699   -4.3889   -9.1182 C.3       1 <0>        -0.0235
     30 C20        -3.7420   -4.8899   -9.6846 C.3       1 <0>         0.0949
     31 C21        -7.1182   -5.0483   -8.0616 C.3       1 <0>        -0.0476
     32 N5         -1.3799   -4.1501    0.6637 N.pl3     1 <0>        -0.3251
     33 N6         -1.3920   -2.8068    1.0614 N.2       1 <0>        -0.2289
     34 C22        -1.3598   -5.3128    1.5547 C.3       1 <0>         0.0963
     35 H2          1.0039    1.9031    0.0027 H         1 <0>         0.0582
     36 H3         -0.5459    1.8868   -0.8726 H         1 <0>         0.0570
     37 H4         -0.5289    1.8773    0.9072 H         1 <0>         0.0575
     38 H5          0.5123   -0.3556   -0.8948 H         1 <0>         0.0655
     39 H6          0.5293   -0.3651    0.8851 H         1 <0>         0.0644
     40 H7         -1.9435   -0.1821    0.9097 H         1 <0>         0.0854
     41 H8         -1.9605   -0.1726   -0.8702 H         1 <0>         0.0931
     42 H9         -1.4060   -5.2840   -5.4339 H         1 <0>         0.1444
     43 H10        -1.4531   -2.3629   -8.5389 H         1 <0>         0.1495
     44 H11        -1.4598   -0.5592   -6.8698 H         1 <0>         0.1518
     45 H12        -0.5902    0.6189   -5.3794 H         1 <0>         0.0706
     46 H13        -2.3699    0.5934   -5.3701 H         1 <0>         0.0677
     47 H14        -1.4990    2.4420   -3.9655 H         1 <0>         0.0830
     48 H15        -2.3667    1.2428   -2.9770 H         1 <0>         0.0703
     49 H16        -0.5869    1.2683   -2.9863 H         1 <0>         0.0743
     50 H17        -3.9053   -7.4822   -8.4752 H         1 <0>         0.1071
     51 H18        -3.1115   -6.9087   -6.9845 H         1 <0>         0.1349
     52 H19        -5.6284   -6.8070   -6.8666 H         1 <0>         0.1469
     53 H20        -4.8527   -5.2186   -6.6568 H         1 <0>         0.1345
     54 H21        -5.6695   -3.9589   -9.9204 H         1 <0>         0.1472
     55 H22        -4.8756   -3.6285   -8.3618 H         1 <0>         0.1345
     56 H23        -3.1556   -4.0439  -10.0432 H         1 <0>         0.1362
     57 H24        -3.9345   -5.5801  -10.5059 H         1 <0>         0.1058
     58 H25        -6.9949   -4.2582   -7.3209 H         1 <0>         0.1220
     59 H26        -7.6771   -4.6629   -8.9144 H         1 <0>         0.1268
     60 H27        -7.6626   -5.8814   -7.6170 H         1 <0>         0.1264
     61 H28        -0.3273   -5.5873    1.7707 H         1 <0>         0.0857
     62 H29        -1.8725   -5.0668    2.4846 H         1 <0>         0.0997
     63 H30        -1.8648   -6.1494    1.0718 H         1 <0>         0.1010
     64 H31        -5.9143   -6.2436   -9.1925 H         1 <0>         0.4277
@<TRIPOS>BOND
     1    1    2 1
     2    1   35 1
     3    1   36 1
     4    1   37 1
     5    2    3 1
     6    2   38 1
     7    2   39 1
     8    3    4 1
     9    3   40 1
    10    3   41 1
    11    4   33 2
    12    4    5 1
    13    5   12 1
    14    5    6 2
    15    6    7 1
    16    6   32 1
    17    7    8 2
    18    7    9 am
    19    9   10 1
    20    9   11 1
    21   11   12 2
    22   11   13 1
    23   13   18 ar
    24   13   14 ar
    25   14   15 ar
    26   14   42 1
    27   15   16 ar
    28   15   22 1
    29   16   17 ar
    30   16   43 1
    31   17   18 ar
    32   17   44 1
    33   18   19 1
    34   19   20 1
    35   20   21 1
    36   20   45 1
    37   20   46 1
    38   21   47 1
    39   21   48 1
    40   21   49 1
    41   22   23 2
    42   22   24 2
    43   22   25 1
    44   25   30 1
    45   25   26 1
    46   26   27 1
    47   26   50 1
    48   26   51 1
    49   27   28 1
    50   27   52 1
    51   27   53 1
    52   28   29 1
    53   28   31 1
    54   28   64 1
    55   29   30 1
    56   29   54 1
    57   29   55 1
    58   30   56 1
    59   30   57 1
    60   31   58 1
    61   31   59 1
    62   31   60 1
    63   32   33 1
    64   32   34 1
    65   34   61 1
    66   34   62 1
    67   34   63 1
@<TRIPOS>MOLECULE
ZINC19796168
   63    66     0     0     0
SMALL
USER_CHARGES

@<TRIPOS>ATOM
      1 C1         -0.0187    1.5258    0.0104 C.3       1 <0>        -0.1539
      2 C2          0.0021   -0.0041    0.0020 C.3       1 <0>        -0.1188
      3 C3          0.7182   -0.4975   -1.2568 C.3       1 <0>        -0.0455
      4 C4          0.7386   -2.0043   -1.2651 C.2       1 <0>         0.0795
      5 C5          1.7371   -2.8090   -0.7054 C.2       1 <0>         0.0226
      6 C6          1.3740   -4.1350   -0.9304 C.2       1 <0>        -0.0270
      7 C7          2.2608   -5.1909   -0.4384 C.2       1 <0>         0.5560
      8 O1          1.9844   -6.3672   -0.6123 O.2       1 <0>        -0.4907
      9 N1          3.3842   -4.8398    0.2075 N.2       1 <0>        -0.5489
     10 C8          3.6977   -3.5767    0.4033 C.2       1 <0>         0.4949
     11 N2          2.9154   -2.5523   -0.0295 N.pl3     1 <0>        -0.5912
     12 C9          4.9471   -3.2598    1.1207 C.ar      1 <0>        -0.1387
     13 C10         5.3072   -1.9297    1.3507 C.ar      1 <0>         0.0502
     14 C11         6.4754   -1.6404    2.0219 C.ar      1 <0>        -0.7241
     15 C12         7.2958   -2.6630    2.4697 C.ar      1 <0>         0.0516
     16 C13         6.9520   -3.9820    2.2486 C.ar      1 <0>        -0.2347
     17 C14         5.7769   -4.2915    1.5805 C.ar      1 <0>         0.2542
     18 O2          5.4349   -5.5872    1.3679 O.3       1 <0>        -0.2513
     19 C15         6.3296   -6.5843    1.8652 C.3       1 <0>         0.0415
     20 C16         5.7806   -7.9733    1.5332 C.3       1 <0>        -0.1498
     21 S1          6.9282    0.0377    2.3112 S.o2      1 <0>         2.6935
     22 O3          8.3389    0.0542    2.4813 O.2       1 <0>        -0.9470
     23 O4          6.2716    0.8126    1.3174 O.2       1 <0>        -0.9501
     24 N3          6.2708    0.4783    3.7659 N.pl3     1 <0>        -0.9978
     25 C17         4.9211    1.0580    3.8397 C.3       1 <0>         0.1243
     26 C18         4.1139    0.2804    4.8848 C.3       1 <0>         0.0380
     27 N4          4.8523    0.2619    6.1546 N.3       1 <0>        -0.5392
     28 C19         6.1314   -0.4472    6.0169 C.3       1 <0>         0.0382
     29 C20         7.0189    0.2948    5.0189 C.3       1 <0>         0.1242
     30 C21         4.0386   -0.3238    7.2283 C.3       1 <0>         0.0243
     31 N5          0.1890   -4.1166   -1.6070 N.pl3     1 <0>        -0.3265
     32 N6         -0.1769   -2.7759   -1.7917 N.2       1 <0>        -0.2363
     33 C22        -0.5677   -5.2881   -2.0556 C.3       1 <0>         0.1018
     34 H1          1.0039    1.9031    0.0027 H         1 <0>         0.0587
     35 H2         -0.5459    1.8868   -0.8726 H         1 <0>         0.0584
     36 H3         -0.5289    1.8773    0.9072 H         1 <0>         0.0590
     37 H4          0.5293   -0.3651    0.8851 H         1 <0>         0.0617
     38 H5         -1.0205   -0.3814    0.0098 H         1 <0>         0.0685
     39 H6          0.1910   -0.1364   -2.1398 H         1 <0>         0.0924
     40 H7          1.7408   -0.1202   -1.2645 H         1 <0>         0.0851
     41 H8          4.6710   -1.1293    1.0027 H         1 <0>         0.1448
     42 H9          8.2097   -2.4272    2.9946 H         1 <0>         0.1511
     43 H10         7.5970   -4.7736    2.6002 H         1 <0>         0.1511
     44 H11         7.3075   -6.4595    1.4002 H         1 <0>         0.0690
     45 H12         6.4252   -6.4802    2.9460 H         1 <0>         0.0679
     46 H13         6.4630   -8.7339    1.9125 H         1 <0>         0.0796
     47 H14         4.8027   -8.0982    1.9981 H         1 <0>         0.0699
     48 H15         5.6850   -8.0774    0.4524 H         1 <0>         0.0705
     49 H16         4.9880    2.1054    4.1338 H         1 <0>         0.0882
     50 H17         4.4346    0.9780    2.8676 H         1 <0>         0.0929
     51 H18         3.1485    0.7644    5.0325 H         1 <0>         0.0901
     52 H19         3.9598   -0.7416    4.5387 H         1 <0>         0.0392
     53 H20         6.6291   -0.4910    6.9857 H         1 <0>         0.0908
     54 H21         5.9492   -1.4591    5.6551 H         1 <0>         0.0394
     55 H22         7.9186   -0.2894    4.8260 H         1 <0>         0.0949
     56 H23         7.2913    1.2675    5.4285 H         1 <0>         0.0873
     57 H24         3.7712   -1.3470    6.9645 H         1 <0>         0.0259
     58 H25         4.6091   -0.3253    8.1570 H         1 <0>         0.0715
     59 H26         3.1316    0.2663    7.3599 H         1 <0>         0.0715
     60 H27        -1.2651   -5.5910   -1.2745 H         1 <0>         0.0826
     61 H28        -1.1218   -5.0381   -2.9604 H         1 <0>         0.0959
     62 H29         0.1207   -6.1067   -2.2656 H         1 <0>         0.1018
     63 H30         3.1857   -1.6357    0.1370 H         1 <0>         0.4171
@<TRIPOS>BOND
     1    1    2 1
     2    1   34 1
     3    1   35 1
     4    1   36 1
     5    2    3 1
     6    2   37 1
     7    2   38 1
     8    3    4 1
     9    3   39 1
    10    3   40 1
    11    4   32 2
    12    4    5 1
    13    5   11 1
    14    5    6 2
    15    6    7 1
    16    6   31 1
    17    7    8 2
    18    7    9 1
    19    9   10 2
    20   10   11 1
    21   10   12 1
    22   11   63 1
    23   12   17 ar
    24   12   13 ar
    25   13   14 ar
    26   13   41 1
    27   14   15 ar
    28   14   21 1
    29   15   16 ar
    30   15   42 1
    31   16   17 ar
    32   16   43 1
    33   17   18 1
    34   18   19 1
    35   19   20 1
    36   19   44 1
    37   19   45 1
    38   20   46 1
    39   20   47 1
    40   20   48 1
    41   21   22 2
    42   21   23 2
    43   21   24 1
    44   24   29 1
    45   24   25 1
    46   25   26 1
    47   25   49 1
    48   25   50 1
    49   26   27 1
    50   26   51 1
    51   26   52 1
    52   27   28 1
    53   27   30 1
    54   28   29 1
    55   28   53 1
    56   28   54 1
    57   29   55 1
    58   29   56 1
    59   30   57 1
    60   30   58 1
    61   30   59 1
    62   31   32 1
    63   31   33 1
    64   33   60 1
    65   33   61 1
    66   33   62 1
@<TRIPOS>MOLECULE
ZINC13298313
   13    14     0     0     0
SMALL
USER_CHARGES

@<TRIPOS>ATOM
      1 C1         -0.0126    1.0758    0.0080 C.2       1 <0>         0.1258
      2 C2          1.1221    1.9168    0.0016 C.ar      1 <0>        -0.3703
      3 C3          0.6506    3.2450    0.0127 C.ar      1 <0>         0.3560
      4 N1         -0.7107    3.1736    0.0251 N.pl3     1 <0>        -0.5016
      5 H1         -1.3194    3.9289    0.0346 H         1 <0>         0.4302
      6 N2         -1.0795    1.8225    0.0165 N.2       1 <0>        -0.3076
      7 N3          1.5352    4.2400    0.0089 N.ar      1 <0>        -0.6359
      8 C4          2.8259    3.9891   -0.0051 C.ar      1 <0>         0.3690
      9 N4          3.3127    2.7605   -0.0163 N.ar      1 <0>        -0.6420
     10 C5          2.5115    1.7032   -0.0128 C.ar      1 <0>         0.4964
     11 O1          3.0197    0.4485   -0.0233 O.3       1 <0>        -0.6778
     12 H2          0.0021   -0.0041    0.0020 H         1 <0>         0.1821
     13 H3          3.5156    4.8201   -0.0078 H         1 <0>         0.1757
@<TRIPOS>BOND
     1    1   12 1
     2    1    2 1
     3    1    6 2
     4    2   10 ar
     5    2    3 ar
     6    3    7 ar
     7    3    4 1
     8    4    5 1
     9    4    6 1
    10    7    8 ar
    11    8    9 ar
    12    8   13 1
    13    9   10 ar
    14   10   11 1
@<TRIPOS>MOLECULE
ZINC01543916
   47    48     0     0     0
SMALL
USER_CHARGES

@<TRIPOS>ATOM
      1 C1         -0.0187    1.5258    0.0104 C.3       1 <0>        -0.1520
      2 C2          0.0021   -0.0041    0.0020 C.3       1 <0>        -0.0816
      3 C3          0.7182   -0.4975   -1.2568 C.3       1 <0>        -0.1369
      4 C4          0.7421   -0.5109    1.2415 C.3       1 <0>         0.1084
      5 H1          1.7647   -0.1336    1.2338 H         1 <0>         0.1177
      6 C5          0.0367   -0.0249    2.4814 C.2       1 <0>         0.4268
      7 O1         -0.7063   -0.7640    3.0828 O.2       1 <0>        -0.5224
      8 O2          0.2338    1.2291    2.9177 O.3       1 <0>        -0.3029
      9 C6         -0.4671    1.6226    4.0993 C.3       1 <0>         0.0685
     10 C7         -0.1190    3.0731    4.4395 C.3       1 <0>         0.1043
     11 H2         -0.5826    3.3451    5.3878 H         1 <0>         0.1024
     12 C8          1.3997    3.2199    4.5536 C.3       1 <0>         0.0546
     13 O3          2.0150    2.7532    3.3512 O.3       1 <0>        -0.5378
     14 O4         -0.6046    3.9341    3.4076 O.3       1 <0>        -0.3679
     15 C9         -0.9602    5.2417    3.8611 C.3       1 <0>         0.2938
     16 N1         -1.4425    6.0368    2.7290 N.pl3     1 <0>        -0.4586
     17 C10        -1.5513    5.6160    1.4353 C.2       1 <0>         0.2325
     18 N2         -2.0150    6.5805    0.6954 N.2       1 <0>        -0.4235
     19 C11        -2.2307    7.6738    1.4668 C.2       1 <0>        -0.1404
     20 C12        -1.8718    7.3354    2.7766 C.2       1 <0>         0.3082
     21 N3         -1.9932    8.2426    3.7526 N.2       1 <0>        -0.5846
     22 C13        -2.4479    9.4506    3.5046 C.2       1 <0>         0.6578
     23 N4         -2.8161    9.8383    2.2508 N.am      1 <0>        -0.6569
     24 H3         -3.1479   10.7376    2.1018 H         1 <0>         0.4202
     25 C14        -2.7135    8.9789    1.2129 C.2       1 <0>         0.5954
     26 O5         -3.0422    9.3156    0.0882 O.2       1 <0>        -0.5046
     27 N5         -2.5553   10.3473    4.5378 N.pl3     1 <0>        -0.8180
     28 N6          0.7620   -1.9797    1.2335 N.3       1 <0>        -0.8131
     29 H4          1.0039    1.9031    0.0027 H         1 <0>         0.0637
     30 H5         -0.5459    1.8868   -0.8726 H         1 <0>         0.0604
     31 H6         -0.5289    1.8773    0.9072 H         1 <0>         0.0635
     32 H7         -1.0205   -0.3814    0.0098 H         1 <0>         0.0710
     33 H8          1.7408   -0.1202   -1.2645 H         1 <0>         0.0560
     34 H9          0.7330   -1.5874   -1.2628 H         1 <0>         0.0681
     35 H10         0.1910   -0.1364   -2.1398 H         1 <0>         0.0555
     36 H11        -1.5405    1.5364    3.9307 H         1 <0>         0.0756
     37 H12        -0.1762    0.9754    4.9268 H         1 <0>         0.0832
     38 H13         1.6527    4.2688    4.7078 H         1 <0>         0.0500
     39 H14         1.7592    2.6314    5.3978 H         1 <0>         0.0581
     40 H15         2.9799    2.8167    3.3530 H         1 <0>         0.3744
     41 H16        -1.7465    5.1645    4.6120 H         1 <0>         0.0805
     42 H17        -0.0864    5.7248    4.2983 H         1 <0>         0.0798
     43 H18        -1.2912    4.6302    1.0790 H         1 <0>         0.2240
     44 H19        -2.2974   10.0859    5.4357 H         1 <0>         0.4291
     45 H20        -2.8892   11.2425    4.3704 H         1 <0>         0.4182
     46 H21         1.3004   -2.3383    2.0078 H         1 <0>         0.3475
     47 H22        -0.1750   -2.3541    1.2404 H         1 <0>         0.3523
@<TRIPOS>BOND
     1    1    2 1
     2    1   29 1
     3    1   30 1
     4    1   31 1
     5    2    3 1
     6    2    4 1
     7    2   32 1
     8    3   33 1
     9    3   34 1
    10    3   35 1
    11    4    5 1
    12    4    6 1
    13    4   28 1
    14    6    7 2
    15    6    8 1
    16    8    9 1
    17    9   10 1
    18    9   36 1
    19    9   37 1
    20   10   11 1
    21   10   12 1
    22   10   14 1
    23   12   13 1
    24   12   38 1
    25   12   39 1
    26   13   40 1
    27   14   15 1
    28   15   16 1
    29   15   41 1
    30   15   42 1
    31   16   20 1
    32   16   17 1
    33   17   18 2
    34   17   43 1
    35   18   19 1
    36   19   25 1
    37   19   20 2
    38   20   21 1
    39   21   22 2
    40   22   23 1
    41   22   27 1
    42   23   24 1
    43   23   25 am
    44   25   26 2
    45   27   44 1
    46   27   45 1
    47   28   46 1
    48   28   47 1
@<TRIPOS>MOLECULE
ZINC01542929
   57    60     0     0     0
SMALL
USER_CHARGES

@<TRIPOS>ATOM
      1 C1          0.0987    1.6986    0.0959 C.3       1 <0>         0.0155
      2 N1         -0.0341    0.2361    0.1344 N.3       1 <0>        -0.5282
      3 C2          0.6752   -0.3266    1.2911 C.3       1 <0>         0.0574
      4 C3          2.1796   -0.1020    1.1255 C.3       1 <0>        -0.1374
      5 C4          2.9184   -0.6882    2.3303 C.3       1 <0>         0.1442
      6 N2          4.3534   -0.4241    2.1989 N.pl3     1 <0>        -0.6149
      7 C5          4.9354    0.7061    2.7828 C.ar      1 <0>         0.1900
      8 C6          4.7775    0.8858    4.1531 C.ar      1 <0>        -0.1422
      9 C7          5.3599    1.9613    4.7901 C.ar      1 <0>        -0.1054
     10 C8          6.1072    2.8593    4.0496 C.ar      1 <0>        -0.1355
     11 C9          6.2508    2.6896    2.6918 C.ar      1 <0>        -0.1108
     12 C10         5.6534    1.6184    2.0238 C.ar      1 <0>        -0.1014
     13 C11         5.8360    1.6274    0.5234 C.3       1 <0>        -0.0638
     14 C12         5.1084    0.4932   -0.1770 C.3       1 <0>        -0.0872
     15 C13         5.6278   -0.8509    0.2675 C.ar      1 <0>        -0.0922
     16 C14         5.1854   -1.2970    1.4909 C.ar      1 <0>         0.1638
     17 C15         5.5628   -2.5372    1.9772 C.ar      1 <0>        -0.1212
     18 C16         6.4207   -3.3154    1.2167 C.ar      1 <0>        -0.1142
     19 C17         6.8878   -2.8573   -0.0018 C.ar      1 <0>        -0.1236
     20 C18         6.4889   -1.6073   -0.4926 C.ar      1 <0>        -0.1048
     21 C19        -1.4475   -0.1642    0.1378 C.3       1 <0>         0.0089
     22 C20        -2.0813    0.2190   -1.1746 C.2       1 <0>         0.3961
     23 O1         -1.4208    0.7710   -2.0286 O.2       1 <0>        -0.4251
     24 C21        -3.5012   -0.0767   -1.4197 C.ar      1 <0>        -0.1648
     25 C22        -4.2678   -0.7083   -0.4345 C.ar      1 <0>        -0.0623
     26 C23        -5.5977   -0.9819   -0.6710 C.ar      1 <0>        -0.1224
     27 C24        -6.1756   -0.6333   -1.8812 C.ar      1 <0>        -0.0066
     28 C25        -5.4225   -0.0075   -2.8616 C.ar      1 <0>        -0.1213
     29 C26        -4.0930    0.2775   -2.6369 C.ar      1 <0>        -0.0478
     30 Cl1        -7.8513   -0.9828   -2.1706 Cl        1 <0>        -0.0580
     31 H1          1.1529    1.9659    0.0232 H         1 <0>         0.0730
     32 H2         -0.4357    2.0893   -0.7701 H         1 <0>         0.0810
     33 H3         -0.3226    2.1258    1.0059 H         1 <0>         0.0235
     34 H4          0.3326    0.1648    2.2017 H         1 <0>         0.0371
     35 H5          0.4725   -1.3956    1.3568 H         1 <0>         0.0768
     36 H6          2.5222   -0.5934    0.2149 H         1 <0>         0.0771
     37 H7          2.3823    0.9670    1.0599 H         1 <0>         0.0684
     38 H8          2.5462   -0.2262    3.2447 H         1 <0>         0.0713
     39 H9          2.7493   -1.7641    2.3720 H         1 <0>         0.0705
     40 H10         4.1940    0.1776    4.7226 H         1 <0>         0.1206
     41 H11         5.2339    2.1009    5.8536 H         1 <0>         0.1235
     42 H12         6.5799    3.6978    4.5394 H         1 <0>         0.1202
     43 H13         6.8388    3.4003    2.1301 H         1 <0>         0.1187
     44 H14         5.4662    2.5749    0.1316 H         1 <0>         0.0782
     45 H15         6.9002    1.5510    0.3000 H         1 <0>         0.0711
     46 H16         4.0445    0.5575    0.0509 H         1 <0>         0.0885
     47 H17         5.2479    0.5911   -1.2536 H         1 <0>         0.0694
     48 H18         5.1964   -2.8906    2.9297 H         1 <0>         0.1236
     49 H19         6.7264   -4.2863    1.5777 H         1 <0>         0.1229
     50 H20         7.5658   -3.4673   -0.5801 H         1 <0>         0.1222
     51 H21         6.8495   -1.2427   -1.4431 H         1 <0>         0.1262
     52 H22        -1.5192   -1.2432    0.2747 H         1 <0>         0.1111
     53 H23        -1.9662    0.3407    0.9529 H         1 <0>         0.0712
     54 H24        -3.8185   -0.9812    0.5089 H         1 <0>         0.1409
     55 H25        -6.1907   -1.4694    0.0886 H         1 <0>         0.1417
     56 H26        -5.8794    0.2610   -3.8026 H         1 <0>         0.1418
     57 H27        -3.5082    0.7690   -3.4004 H         1 <0>         0.1445
@<TRIPOS>BOND
     1    1    2 1
     2    1   31 1
     3    1   32 1
     4    1   33 1
     5    2    3 1
     6    2   21 1
     7    3    4 1
     8    3   34 1
     9    3   35 1
    10    4    5 1
    11    4   36 1
    12    4   37 1
    13    5    6 1
    14    5   38 1
    15    5   39 1
    16    6   16 1
    17    6    7 1
    18    7   12 ar
    19    7    8 ar
    20    8    9 ar
    21    8   40 1
    22    9   10 ar
    23    9   41 1
    24   10   11 ar
    25   10   42 1
    26   11   12 ar
    27   11   43 1
    28   12   13 1
    29   13   14 1
    30   13   44 1
    31   13   45 1
    32   14   15 1
    33   14   46 1
    34   14   47 1
    35   15   20 ar
    36   15   16 ar
    37   16   17 ar
    38   17   18 ar
    39   17   48 1
    40   18   19 ar
    41   18   49 1
    42   19   20 ar
    43   19   50 1
    44   20   51 1
    45   21   22 1
    46   21   52 1
    47   21   53 1
    48   22   23 2
    49   22   24 1
    50   24   29 ar
    51   24   25 ar
    52   25   26 ar
    53   25   54 1
    54   26   27 ar
    55   26   55 1
    56   27   28 ar
    57   27   30 1
    58   28   29 ar
    59   28   56 1
    60   29   57 1
@<TRIPOS>MOLECULE
ZINC14879992
   59    62     0     0     0
SMALL
USER_CHARGES

@<TRIPOS>ATOM
      1 C1          2.1004    1.4465    0.7209 C.3       1 <0>         0.1153
      2 N1          1.2873    0.2399    0.5500 N.pl3     1 <0>        -0.6835
      3 C2          1.9353   -1.0671    0.4150 C.3       1 <0>         0.1160
      4 C3         -0.1086    0.3357    0.5157 C.ar      1 <0>         0.1454
      5 C4         -0.7622    0.5206   -0.6985 C.ar      1 <0>        -0.0827
      6 C5         -2.1383    0.6195   -0.7422 C.ar      1 <0>        -0.1602
      7 C6         -2.8801    0.5282    0.4266 C.ar      1 <0>         0.1580
      8 C7         -2.2299    0.3291    1.6489 C.ar      1 <0>        -0.1755
      9 C8         -0.8366    0.2407    1.6893 C.ar      1 <0>        -0.0231
     10 C9         -0.1276    0.0692    3.0065 C.3       1 <0>        -0.0749
     11 C10        -0.9539   -0.8132    3.9396 C.3       1 <0>        -0.0221
     12 H1         -1.0189   -1.8168    3.5193 H         1 <0>         0.0845
     13 C11        -0.2770   -0.8849    5.3113 C.3       1 <0>        -0.1154
     14 C12        -1.2287   -1.5913    6.2726 C.3       1 <0>        -0.0537
     15 H2         -1.5927   -2.4959    5.7854 H         1 <0>         0.0832
     16 C13        -0.5387   -1.9940    7.5613 C.3       1 <0>         0.0923
     17 H3          0.4034   -2.4859    7.3190 H         1 <0>         0.0513
     18 C14        -0.2590   -0.8174    8.4474 C.2       1 <0>         0.3552
     19 C15        -0.9377    0.3693    8.3250 C.2       1 <0>        -0.5001
     20 C16        -1.9542    0.5344    7.2870 C.2       1 <0>         0.3892
     21 O1         -2.4032    1.6326    7.0307 O.2       1 <0>        -0.5171
     22 C17        -2.4288   -0.6849    6.5492 C.3       1 <0>         0.1185
     23 C18        -2.9986   -0.2056    5.2412 C.2       1 <0>         0.1742
     24 C19        -2.3415   -0.2510    4.0950 C.2       1 <0>        -0.2451
     25 C20        -3.0026    0.2256    2.9030 C.2       1 <0>         0.4303
     26 O2         -4.1791    0.5393    2.9330 O.2       1 <0>        -0.4248
     27 O3         -4.2416    0.3158    5.2464 O.3       1 <0>        -0.4595
     28 O4         -3.4164   -1.3810    7.3122 O.3       1 <0>        -0.4986
     29 C21        -0.6413    1.4805    9.2431 C.2       1 <0>         0.5863
     30 O5          0.2718    1.3833   10.0408 O.2       1 <0>        -0.5667
     31 N2         -1.3817    2.6059    9.2001 N.am      1 <0>        -0.8761
     32 O6          0.6863   -0.9284    9.3923 O.3       1 <0>        -0.6042
     33 N3         -1.3972   -2.9404    8.2859 N.3       1 <0>        -0.5101
     34 C22        -1.5576   -4.1902    7.5307 C.3       1 <0>         0.0269
     35 C23        -0.8723   -3.2028    9.6326 C.3       1 <0>         0.0318
     36 O7         -4.2331    0.6323    0.3842 O.3       1 <0>        -0.4792
     37 H4          3.1562    1.1758    0.7231 H         1 <0>         0.0660
     38 H5          1.9039    2.1363   -0.0998 H         1 <0>         0.0390
     39 H6          1.8460    1.9251    1.6666 H         1 <0>         0.0433
     40 H7          2.0626   -1.5131    1.4013 H         1 <0>         0.0366
     41 H8          1.3150   -1.7182   -0.2010 H         1 <0>         0.0533
     42 H9          2.9103   -0.9422   -0.0559 H         1 <0>         0.0570
     43 H10        -0.1898    0.5876   -1.6118 H         1 <0>         0.1278
     44 H11        -2.6384    0.7685   -1.6878 H         1 <0>         0.1324
     45 H12         0.8436   -0.3954    2.8361 H         1 <0>         0.0901
     46 H13         0.0180    1.0459    3.4681 H         1 <0>         0.0849
     47 H14         0.6531   -1.4479    5.2339 H         1 <0>         0.0815
     48 H15        -0.0694    0.1223    5.6725 H         1 <0>         0.0798
     49 H16        -4.9331   -0.3182    5.4809 H         1 <0>         0.3886
     50 H17        -4.2289   -0.8771    7.4571 H         1 <0>         0.3664
     51 H18        -2.1548    2.6559    8.6164 H         1 <0>         0.3991
     52 H19        -1.1413    3.3660    9.7527 H         1 <0>         0.3752
     53 H20        -0.5762   -4.6114    7.3125 H         1 <0>         0.0164
     54 H21        -2.1345   -4.9009    8.1225 H         1 <0>         0.0630
     55 H22        -2.0810   -3.9858    6.5967 H         1 <0>         0.0659
     56 H23        -0.9426   -2.2957   10.2330 H         1 <0>         0.0805
     57 H24        -1.4553   -3.9952   10.1018 H         1 <0>         0.0524
     58 H25         0.1706   -3.5120    9.5621 H         1 <0>         0.0256
     59 H26        -4.6889   -0.2119    0.2631 H         1 <0>         0.3897
@<TRIPOS>BOND
     1    1    2 1
     2    1   37 1
     3    1   38 1
     4    1   39 1
     5    2    3 1
     6    2    4 1
     7    3   40 1
     8    3   41 1
     9    3   42 1
    10    4    9 ar
    11    4    5 ar
    12    5    6 ar
    13    5   43 1
    14    6    7 ar
    15    6   44 1
    16    7    8 ar
    17    7   36 1
    18    8   25 1
    19    8    9 ar
    20    9   10 1
    21   10   11 1
    22   10   45 1
    23   10   46 1
    24   11   12 1
    25   11   24 1
    26   11   13 1
    27   13   14 1
    28   13   47 1
    29   13   48 1
    30   14   15 1
    31   14   22 1
    32   14   16 1
    33   16   17 1
    34   16   18 1
    35   16   33 1
    36   18   19 2
    37   18   32 1
    38   19   20 1
    39   19   29 1
    40   20   21 2
    41   20   22 1
    42   22   23 1
    43   22   28 1
    44   23   24 2
    45   23   27 1
    46   24   25 1
    47   25   26 2
    48   27   49 1
    49   28   50 1
    50   29   30 2
    51   29   31 am
    52   31   51 1
    53   31   52 1
    54   33   34 1
    55   33   35 1
    56   34   53 1
    57   34   54 1
    58   34   55 1
    59   35   56 1
    60   35   57 1
    61   35   58 1
    62   36   59 1
@<TRIPOS>MOLECULE
ZINC14879992
   60    63     0     0     0
SMALL
USER_CHARGES

@<TRIPOS>ATOM
      1 C1         -0.0856    2.5771   -2.9741 C.3       1 <0>         0.1166
      2 N1          0.0861    1.2768   -2.3215 N.pl3     1 <0>        -0.6831
      3 C2          0.2768    1.2049   -0.8707 C.3       1 <0>         0.1151
      4 C3          0.0680    0.1033   -3.0839 C.ar      1 <0>         0.1480
      5 C4          1.2529   -0.4010   -3.6103 C.ar      1 <0>        -0.0779
      6 C5          1.2454   -1.5562   -4.3657 C.ar      1 <0>        -0.1576
      7 C6          0.0541   -2.2285   -4.5971 C.ar      1 <0>         0.1615
      8 C7         -1.1379   -1.7348   -4.0577 C.ar      1 <0>        -0.1845
      9 C8         -1.1283   -0.5565   -3.3083 C.ar      1 <0>        -0.0282
     10 C9         -2.4160    0.0120   -2.7770 C.3       1 <0>        -0.0720
     11 C10        -3.3692   -1.1097   -2.3640 C.3       1 <0>        -0.0264
     12 H1         -2.8905   -1.6457   -1.5445 H         1 <0>         0.0849
     13 C11        -4.6510   -0.5193   -1.8177 C.3       1 <0>        -0.0987
     14 C12        -5.8797   -0.8473   -2.6493 C.3       1 <0>        -0.0448
     15 H2         -6.7753   -0.5441   -2.1069 H         1 <0>         0.0950
     16 C13        -5.8287   -0.1188   -3.9929 C.3       1 <0>         0.0509
     17 H3         -4.9359   -0.4234   -4.5390 H         1 <0>         0.1164
     18 C14        -7.0553   -0.4741   -4.7942 C.2       1 <0>         0.3981
     19 O1         -7.5041    0.3203   -5.5956 O.2       1 <0>        -0.5015
     20 C15        -7.6845   -1.7248   -4.6184 C.2       1 <0>        -0.4477
     21 C16        -8.8334   -2.0320   -5.3634 C.2       1 <0>         0.5416
     22 N2         -9.4083   -1.0866   -6.1393 N.pl3     1 <0>        -0.8268
     23 O2         -9.3621   -3.2666   -5.3052 O.3       1 <0>        -0.4211
     24 C17        -7.1745   -2.6713   -3.7045 C.2       1 <0>         0.4023
     25 O3         -7.7360   -3.7386   -3.5617 O.2       1 <0>        -0.4675
     26 C18        -5.9293   -2.3603   -2.9106 C.3       1 <0>         0.1087
     27 C19        -4.7162   -2.6932   -3.7513 C.2       1 <0>         0.1229
     28 O4         -4.8094   -3.5765   -4.7653 O.3       1 <0>        -0.4577
     29 C20        -3.5529   -2.0875   -3.4779 C.2       1 <0>        -0.1923
     30 C21        -2.4154   -2.4402   -4.2820 C.2       1 <0>         0.4221
     31 O5         -2.5024   -3.3096   -5.1304 O.2       1 <0>        -0.4150
     32 O6         -5.9248   -3.0875   -1.6805 O.3       1 <0>        -0.5163
     33 N3         -5.7932    1.3319   -3.7640 N.3       1 <0>        -0.5104
     34 C22        -5.3982    2.0479   -4.9843 C.3       1 <0>         0.0127
     35 C23        -7.0861    1.8177   -3.2637 C.3       1 <0>         0.0049
     36 O7          0.0455   -3.3616   -5.3449 O.3       1 <0>        -0.4801
     37 H4          0.8888    2.9686   -3.2662 H         1 <0>         0.0334
     38 H5         -0.7103    2.4596   -3.8596 H         1 <0>         0.0546
     39 H6         -0.5632    3.2707   -2.2821 H         1 <0>         0.0599
     40 H7          0.2623    2.2111   -0.4520 H         1 <0>         0.0670
     41 H8         -0.5257    0.6153   -0.4276 H         1 <0>         0.0423
     42 H9          1.2358    0.7347   -0.6532 H         1 <0>         0.0399
     43 H10         2.1840    0.1145   -3.4270 H         1 <0>         0.1301
     44 H11         2.1683   -1.9371   -4.7777 H         1 <0>         0.1348
     45 H12        -2.2020    0.6387   -1.9112 H         1 <0>         0.0932
     46 H13        -2.8876    0.6179   -3.5506 H         1 <0>         0.0872
     47 H14        -4.8044   -0.8960   -0.8064 H         1 <0>         0.0774
     48 H15        -4.5423    0.5642   -1.7696 H         1 <0>         0.0947
     49 H16        -9.8437   -1.3388   -6.9685 H         1 <0>         0.4100
     50 H17        -9.3855   -0.1559   -5.8669 H         1 <0>         0.4335
     51 H18       -10.1513   -3.3827   -5.8517 H         1 <0>         0.4059
     52 H19        -6.1864    1.9547   -5.7314 H         1 <0>         0.0547
     53 H20        -5.2400    3.1011   -4.7525 H         1 <0>         0.0698
     54 H21        -4.4752    1.6191   -5.3745 H         1 <0>         0.0621
     55 H22        -7.3214    1.3209   -2.3224 H         1 <0>         0.0677
     56 H23        -7.0321    2.8944   -3.1027 H         1 <0>         0.0730
     57 H24        -7.8643    1.5982   -3.9947 H         1 <0>         0.0415
     58 H25         0.1734   -4.1718   -4.8328 H         1 <0>         0.3920
     59 H26        -5.9551   -4.0477   -1.7910 H         1 <0>         0.3873
     60 H27        -5.0133   -4.4787   -4.4835 H         1 <0>         0.3964
@<TRIPOS>BOND
     1    1    2 1
     2    1   37 1
     3    1   38 1
     4    1   39 1
     5    2    3 1
     6    2    4 1
     7    3   40 1
     8    3   41 1
     9    3   42 1
    10    4    9 ar
    11    4    5 ar
    12    5    6 ar
    13    5   43 1
    14    6    7 ar
    15    6   44 1
    16    7    8 ar
    17    7   36 1
    18    8   30 1
    19    8    9 ar
    20    9   10 1
    21   10   11 1
    22   10   45 1
    23   10   46 1
    24   11   12 1
    25   11   29 1
    26   11   13 1
    27   13   14 1
    28   13   47 1
    29   13   48 1
    30   14   15 1
    31   14   26 1
    32   14   16 1
    33   16   17 1
    34   16   18 1
    35   16   33 1
    36   18   19 2
    37   18   20 1
    38   20   21 2
    39   20   24 1
    40   21   22 1
    41   21   23 1
    42   22   49 1
    43   22   50 1
    44   23   51 1
    45   24   25 2
    46   24   26 1
    47   26   27 1
    48   26   32 1
    49   27   28 1
    50   27   29 2
    51   28   60 1
    52   29   30 1
    53   30   31 2
    54   32   59 1
    55   33   34 1
    56   33   35 1
    57   34   52 1
    58   34   53 1
    59   34   54 1
    60   35   55 1
    61   35   56 1
    62   35   57 1
    63   36   58 1
@<TRIPOS>MOLECULE
ZINC16052277
   54    57     0     0     0
SMALL
USER_CHARGES

@<TRIPOS>ATOM
      1 C1         -0.1179    2.1940    0.4188 C.3       1 <0>        -0.1526
      2 C2         -0.2845    0.6731    0.4245 C.3       1 <0>        -0.0459
      3 H1         -1.3349    0.4253    0.5773 H         1 <0>         0.0797
      4 C3          0.1725    0.1159   -0.8976 C.ar      1 <0>        -0.0347
      5 C4          0.1796    0.9066   -2.0253 C.ar      1 <0>        -0.1476
      6 C5          0.5871    0.3811   -3.2413 C.ar      1 <0>        -0.1154
      7 C6          0.9885   -0.9371   -3.3371 C.ar      1 <0>        -0.1728
      8 C7          0.9929   -1.7466   -2.2107 C.ar      1 <0>         0.1342
      9 C8          0.5886   -1.2159   -0.9782 C.ar      1 <0>        -0.0975
     10 C9          0.6162   -2.0387    0.2399 C.2       1 <0>         0.3274
     11 O1          0.6951   -3.3843    0.1506 O.3       1 <0>        -0.6048
     12 C10         0.5613   -1.4250    1.4775 C.2       1 <0>        -0.4902
     13 C11         0.5170   -2.2180    2.6194 C.2       1 <0>         0.3766
     14 C12         0.4796   -1.6657    4.0132 C.3       1 <0>         0.1165
     15 C13         0.7275   -0.1754    4.0262 C.3       1 <0>        -0.0753
     16 H2          1.7874   -0.0215    3.8237 H         1 <0>         0.0739
     17 C14        -0.0512    0.5100    2.9044 C.3       1 <0>         0.1182
     18 H3         -1.0992    0.2143    2.9530 H         1 <0>         0.1008
     19 C15         0.5461    0.0773    1.5587 C.3       1 <0>        -0.0023
     20 H4          1.5672    0.4529    1.4919 H         1 <0>         0.0394
     21 O2          0.0539    1.9282    3.0447 O.3       1 <0>        -0.5549
     22 C16         0.4234    0.4810    5.3586 C.3       1 <0>         0.0672
     23 H5          0.4664    1.5639    5.2417 H         1 <0>         0.0592
     24 C17        -0.9404    0.0928    5.8551 C.2       1 <0>         0.4212
     25 O3         -1.5948    0.8749    6.5134 O.2       1 <0>        -0.5605
     26 C18        -1.4758   -1.2298    5.5420 C.2       1 <0>        -0.5093
     27 C19        -0.8052   -2.0528    4.6788 C.2       1 <0>         0.3349
     28 O4         -1.3362   -3.2527    4.4008 O.3       1 <0>        -0.5769
     29 C20        -2.7299   -1.6813    6.1658 C.2       1 <0>         0.5846
     30 O5         -3.1217   -2.8192    5.9892 O.2       1 <0>        -0.5724
     31 N1         -3.4442   -0.8339    6.9327 N.am      1 <0>        -0.8810
     32 N2          1.4304    0.0625    6.3428 N.3       1 <0>        -0.5086
     33 C21         2.7638    0.5567    5.9744 C.3       1 <0>         0.0319
     34 C22         1.0605    0.5033    7.6944 C.3       1 <0>         0.0300
     35 O6          1.5465   -2.2709    4.7463 O.3       1 <0>        -0.5346
     36 O7          0.5084   -3.4258    2.4798 O.2       1 <0>        -0.4779
     37 O8          1.3851   -3.0422   -2.3015 O.3       1 <0>        -0.4724
     38 H6          0.9431    2.4432    0.4067 H         1 <0>         0.0459
     39 H7         -0.5986    2.6088   -0.4672 H         1 <0>         0.0426
     40 H8         -0.5796    2.6135    1.3127 H         1 <0>         0.0867
     41 H9         -0.1335    1.9382   -1.9619 H         1 <0>         0.1227
     42 H10         0.5906    1.0073   -4.1212 H         1 <0>         0.1133
     43 H11         1.2990   -1.3383   -4.2906 H         1 <0>         0.1163
     44 H12         0.9526    2.2685    2.9372 H         1 <0>         0.3603
     45 H13        -3.1750    0.0948    7.0097 H         1 <0>         0.4005
     46 H14        -4.2275   -1.1528    7.4078 H         1 <0>         0.3661
     47 H15         2.7336    1.6413    5.8712 H         1 <0>         0.0116
     48 H16         3.4792    0.2853    6.7508 H         1 <0>         0.0581
     49 H17         3.0681    0.1100    5.0278 H         1 <0>         0.0739
     50 H18         0.1553   -0.0149    8.0106 H         1 <0>         0.0695
     51 H19         1.8711    0.2736    8.3861 H         1 <0>         0.0550
     52 H20         0.8808    1.5784    7.6895 H         1 <0>         0.0191
     53 H21         1.5283   -3.2378    4.7412 H         1 <0>         0.3706
     54 H22         2.3318   -3.1775   -2.1584 H         1 <0>         0.3798
@<TRIPOS>BOND
     1    1    2 1
     2    1   38 1
     3    1   39 1
     4    1   40 1
     5    2    3 1
     6    2   19 1
     7    2    4 1
     8    4    9 ar
     9    4    5 ar
    10    5    6 ar
    11    5   41 1
    12    6    7 ar
    13    6   42 1
    14    7    8 ar
    15    7   43 1
    16    8    9 ar
    17    8   37 1
    18    9   10 1
    19   10   11 1
    20   10   12 2
    21   12   19 1
    22   12   13 1
    23   13   14 1
    24   13   36 2
    25   14   27 1
    26   14   15 1
    27   14   35 1
    28   15   16 1
    29   15   17 1
    30   15   22 1
    31   17   18 1
    32   17   19 1
    33   17   21 1
    34   19   20 1
    35   21   44 1
    36   22   23 1
    37   22   24 1
    38   22   32 1
    39   24   25 2
    40   24   26 1
    41   26   27 2
    42   26   29 1
    43   27   28 1
    44   29   30 2
    45   29   31 am
    46   31   45 1
    47   31   46 1
    48   32   33 1
    49   32   34 1
    50   33   47 1
    51   33   48 1
    52   33   49 1
    53   34   50 1
    54   34   51 1
    55   34   52 1
    56   35   53 1
    57   37   54 1
@<TRIPOS>MOLECULE
ZINC02126310
   36    38     0     0     0
SMALL
USER_CHARGES

@<TRIPOS>ATOM
      1 C1         -0.0158    1.3119    0.0093 C.ar      1 <0>         0.3552
      2 N1          1.0888    2.0360    0.0026 N.ar      1 <0>        -0.5957
      3 C2          2.2875    1.4625   -0.0119 C.ar      1 <0>         0.5053
      4 C3          2.3582    0.0588   -0.0202 C.ar      1 <0>        -0.1011
      5 C4          1.1547   -0.6659   -0.0126 C.ar      1 <0>         0.3045
      6 N2          0.0021   -0.0041    0.0020 N.ar      1 <0>        -0.5584
      7 N3          1.5110   -1.9908   -0.0227 N.pl3     1 <0>        -0.4530
      8 C5          2.8729   -2.0476   -0.0358 C.2       1 <0>         0.2942
      9 N4          3.3680   -0.8441   -0.0343 N.2       1 <0>        -0.4736
     10 C6          0.5956   -3.1347   -0.0195 C.3       1 <0>         0.3119
     11 H1         -0.2832   -2.9148    0.5866 H         1 <0>         0.1222
     12 C7          0.1775   -3.4928   -1.4629 C.3       1 <0>         0.0356
     13 H2         -0.7979   -3.0653   -1.6951 H         1 <0>         0.0936
     14 C8          0.1056   -5.0362   -1.4608 C.3       1 <0>         0.0454
     15 H3          0.8193   -5.4528   -2.1716 H         1 <0>         0.0954
     16 C9          0.4888   -5.4280   -0.0165 C.3       1 <0>         0.0886
     17 H4         -0.4066   -5.5617    0.5906 H         1 <0>         0.1017
     18 O1          1.2661   -4.3138    0.4763 O.3       1 <0>        -0.3433
     19 C10         1.3272   -6.7078   -0.0164 C.3       1 <0>         0.1473
     20 O2          1.5723   -7.1166    1.3308 O.3       1 <0>        -0.7537
     21 P1          2.4256   -8.4288    1.7075 P.3       1 <0>         2.2116
     22 O3          3.8133   -8.3521    1.0326 O.2       1 <0>        -1.1061
     23 O4          2.6094   -8.5091    3.3050 O.3       1 <0>        -0.8963
     24 O5          1.6804   -9.6878    1.2109 O.3       1 <0>        -1.1052
     25 O6         -1.2191   -5.4762   -1.7672 O.3       1 <0>        -0.5450
     26 O7          1.1582   -3.0358   -2.3963 O.3       1 <0>        -0.5415
     27 N5          3.4393    2.2295   -0.0193 N.pl3     1 <0>        -0.8205
     28 H5         -0.9693    1.8187    0.0257 H         1 <0>         0.2021
     29 H6          3.4551   -2.9572   -0.0459 H         1 <0>         0.2237
     30 H7          0.7880   -7.4954   -0.5427 H         1 <0>         0.0779
     31 H8          2.2767   -6.5201   -0.5176 H         1 <0>         0.0677
     32 H9         -1.5313   -5.2049   -2.6412 H         1 <0>         0.3836
     33 H10         0.9460   -3.2344   -3.3186 H         1 <0>         0.3840
     34 H11         3.3774    3.1975   -0.0138 H         1 <0>         0.4080
     35 H12         4.3085    1.7992   -0.0299 H         1 <0>         0.4187
     36 H13         3.1153   -9.2769    3.6046 H         1 <0>         0.4151
@<TRIPOS>BOND
     1    1    6 ar
     2    1    2 ar
     3    1   28 1
     4    2    3 ar
     5    3    4 ar
     6    3   27 1
     7    4    9 1
     8    4    5 ar
     9    5    6 ar
    10    5    7 1
    11    7    8 1
    12    7   10 1
    13    8    9 2
    14    8   29 1
    15   10   11 1
    16   10   18 1
    17   10   12 1
    18   12   13 1
    19   12   14 1
    20   12   26 1
    21   14   15 1
    22   14   16 1
    23   14   25 1
    24   16   17 1
    25   16   18 1
    26   16   19 1
    27   19   20 1
    28   19   30 1
    29   19   31 1
    30   20   21 1
    31   21   22 2
    32   21   23 1
    33   21   24 1
    34   23   36 1
    35   25   32 1
    36   26   33 1
    37   27   34 1
    38   27   35 1
@<TRIPOS>MOLECULE
ZINC04676408
   11    11     0     0     0
SMALL
USER_CHARGES
5-iodo-2-thioxo-1H-pyrimidin-4-one
@<TRIPOS>ATOM
      1 C1          1.1516    2.0542    0.0021 C.2       1 <0>         0.2162
      2 C2          2.3339    1.4012   -0.0123 C.2       1 <0>        -0.3459
      3 C3          2.3385   -0.0151   -0.0204 C.2       1 <0>         0.5447
      4 O1          3.3917   -0.6263   -0.0334 O.3       1 <0>        -0.5586
      5 N1          1.1657   -0.6804   -0.0132 N.pl3     1 <0>        -0.6388
      6 H1          1.1573   -1.7803   -0.0198 H         1 <0>         0.4399
      7 C4          0.0021   -0.0041    0.0020 C.2       1 <0>         0.5183
      8 S1         -1.4759   -0.8680    0.0115 S.2       1 <0>        -0.7152
      9 N2         -0.0162    1.3412    0.0094 N.2       1 <0>        -0.5716
     10 I1          4.1364    2.4688   -0.0239 I         1 <0>        -0.0407
     11 H2          1.1282    3.1340    0.0078 H         1 <0>         0.1517
@<TRIPOS>BOND
     1    1    9 2
     2    1    2 1
     3    1   11 1
     4    2    3 2
     5    2   10 1
     6    3    4 1
     7    3    5 1
     8    5    6 1
     9    5    7 1
    10    7    8 2
    11    7    9 1
@<TRIPOS>MOLECULE
ZINC18324776
   67    70     0     0     0
SMALL
USER_CHARGES

@<TRIPOS>ATOM
      1 C1         -0.0187    1.5258    0.0104 C.3       1 <0>        -0.1527
      2 C2          0.0021   -0.0041    0.0020 C.3       1 <0>        -0.1146
      3 C3         -1.4333   -0.5336    0.0129 C.3       1 <0>        -0.0409
      4 C4         -1.4129   -2.0405    0.0046 C.2       1 <0>         0.3010
      5 N1         -1.4071   -2.7929   -1.0707 N.2       1 <0>        -0.4733
      6 C5         -1.3877   -4.0800   -0.7214 C.2       1 <0>         0.1428
      7 C6         -1.3810   -4.1322    0.6504 C.2       1 <0>        -0.1723
      8 N2         -1.3919   -2.8210    1.0945 N.pl3     1 <0>        -0.2854
      9 N3         -1.3832   -2.5699    2.4695 N.2       1 <0>        -0.2583
     10 C7         -1.3620   -3.5449    3.3321 C.2       1 <0>         0.4061
     11 N4         -1.3466   -4.8711    2.9502 N.am      1 <0>        -0.6726
     12 H1         -1.3310   -5.5667    3.6261 H         1 <0>         0.4190
     13 C8         -1.3621   -5.2077    1.6407 C.2       1 <0>         0.6010
     14 O1         -1.3478   -6.3752    1.2954 O.2       1 <0>        -0.4816
     15 C9         -1.3537   -3.2195    4.7733 C.ar      1 <0>        -0.1139
     16 C10        -1.3254   -4.2417    5.7231 C.ar      1 <0>         0.0469
     17 C11        -1.3178   -3.9318    7.0668 C.ar      1 <0>        -0.7277
     18 C12        -1.3382   -2.6100    7.4784 C.ar      1 <0>         0.0445
     19 C13        -1.3663   -1.5892    6.5478 C.ar      1 <0>        -0.2261
     20 C14        -1.3684   -1.8838    5.1935 C.ar      1 <0>         0.2477
     21 O2         -1.3904   -0.8814    4.2779 O.3       1 <0>        -0.2651
     22 C15        -1.4044    0.4562    4.7806 C.3       1 <0>         0.0428
     23 C16        -1.4284    1.4408    3.6097 C.3       1 <0>        -0.1560
     24 S1         -1.2826   -5.2233    8.2649 S.o2      1 <0>         2.6921
     25 O3         -1.8316   -4.6842    9.4596 O.2       1 <0>        -0.9290
     26 O4         -1.8188   -6.3779    7.6334 O.2       1 <0>        -0.9309
     27 N5          0.3088   -5.5535    8.5823 N.pl3     1 <0>        -1.0122
     28 C17         1.0439   -6.5580    7.7981 C.3       1 <0>         0.0949
     29 C18         2.3562   -5.9317    7.3149 C.3       1 <0>        -0.0239
     30 N6          3.0970   -5.4006    8.4661 N.4       1 <0>        -0.3828
     31 C19         2.3407   -4.3048    9.0851 C.3       1 <0>        -0.0284
     32 C20         1.0293   -4.8464    9.6524 C.3       1 <0>         0.0958
     33 C21         4.4028   -4.8994    8.0169 C.3       1 <0>        -0.0114
     34 C22         5.2254   -4.4605    9.2299 C.3       1 <0>        -0.1896
     35 C23        -1.3758   -5.2593   -1.6596 C.3       1 <0>        -0.0821
     36 H2          1.0039    1.9031    0.0027 H         1 <0>         0.0592
     37 H3         -0.5459    1.8868   -0.8726 H         1 <0>         0.0614
     38 H4         -0.5289    1.8773    0.9072 H         1 <0>         0.0565
     39 H5          0.5123   -0.3556   -0.8948 H         1 <0>         0.0710
     40 H6          0.5293   -0.3651    0.8851 H         1 <0>         0.0594
     41 H7         -1.9435   -0.1821    0.9097 H         1 <0>         0.0906
     42 H8         -1.9605   -0.1726   -0.8702 H         1 <0>         0.1040
     43 H9         -1.3098   -5.2740    5.4062 H         1 <0>         0.1484
     44 H10        -1.3324   -2.3756    8.5327 H         1 <0>         0.1534
     45 H11        -1.3821   -0.5605    6.8761 H         1 <0>         0.1551
     46 H12        -2.2911    0.6033    5.3972 H         1 <0>         0.0735
     47 H13        -0.5114    0.6279    5.3815 H         1 <0>         0.0708
     48 H14        -0.5417    1.2936    2.9931 H         1 <0>         0.0726
     49 H15        -2.3214    1.2691    3.0088 H         1 <0>         0.0719
     50 H16        -1.4391    2.4610    3.9931 H         1 <0>         0.0865
     51 H17         1.2599   -7.4244    8.4233 H         1 <0>         0.1083
     52 H18         0.4453   -6.8622    6.9395 H         1 <0>         0.1351
     53 H19         2.9579   -6.6900    6.8139 H         1 <0>         0.1474
     54 H20         2.1378   -5.1222    6.6184 H         1 <0>         0.1335
     55 H21         2.9311   -3.8642    9.8885 H         1 <0>         0.1485
     56 H22         2.1228   -3.5445    8.3351 H         1 <0>         0.1342
     57 H23         0.4209   -4.0196   10.0191 H         1 <0>         0.1362
     58 H24         1.2438   -5.5370   10.4679 H         1 <0>         0.1066
     59 H25         4.9323   -5.6903    7.4857 H         1 <0>         0.1333
     60 H26         4.2560   -4.0494    7.3505 H         1 <0>         0.1286
     61 H27         4.6958   -3.6696    9.7611 H         1 <0>         0.0809
     62 H28         5.3721   -5.3105    9.8963 H         1 <0>         0.0825
     63 H29         6.1943   -4.0886    8.8966 H         1 <0>         0.1077
     64 H30        -0.3454   -5.5297   -1.8903 H         1 <0>         0.0839
     65 H31        -1.8762   -6.1045   -1.1871 H         1 <0>         0.0849
     66 H32        -1.8973   -4.9966   -2.5800 H         1 <0>         0.0846
     67 H33         3.2364   -6.1358    9.1430 H         1 <0>         0.4258
@<TRIPOS>BOND
     1    1    2 1
     2    1   36 1
     3    1   37 1
     4    1   38 1
     5    2    3 1
     6    2   39 1
     7    2   40 1
     8    3    4 1
     9    3   41 1
    10    3   42 1
    11    4    8 1
    12    4    5 2
    13    5    6 1
    14    6    7 2
    15    6   35 1
    16    7   13 1
    17    7    8 1
    18    8    9 1
    19    9   10 2
    20   10   11 1
    21   10   15 1
    22   11   12 1
    23   11   13 am
    24   13   14 2
    25   15   20 ar
    26   15   16 ar
    27   16   17 ar
    28   16   43 1
    29   17   18 ar
    30   17   24 1
    31   18   19 ar
    32   18   44 1
    33   19   20 ar
    34   19   45 1
    35   20   21 1
    36   21   22 1
    37   22   23 1
    38   22   46 1
    39   22   47 1
    40   23   48 1
    41   23   49 1
    42   23   50 1
    43   24   25 2
    44   24   26 2
    45   24   27 1
    46   27   32 1
    47   27   28 1
    48   28   29 1
    49   28   51 1
    50   28   52 1
    51   29   30 1
    52   29   53 1
    53   29   54 1
    54   30   31 1
    55   30   33 1
    56   30   67 1
    57   31   32 1
    58   31   55 1
    59   31   56 1
    60   32   57 1
    61   32   58 1
    62   33   34 1
    63   33   59 1
    64   33   60 1
    65   34   61 1
    66   34   62 1
    67   34   63 1
    68   35   64 1
    69   35   65 1
    70   35   66 1
@<TRIPOS>MOLECULE
ZINC18324776
   65    68     0     0     0
SMALL
USER_CHARGES

@<TRIPOS>ATOM
      1 C1         -0.0187    1.5258    0.0104 C.3       1 <0>        -0.1472
      2 C2          0.0021   -0.0041    0.0020 C.3       1 <0>        -0.1154
      3 C3         -1.4333   -0.5336    0.0129 C.3       1 <0>        -0.0179
      4 C4         -1.4129   -2.0405    0.0046 C.2       1 <0>         0.2125
      5 N1         -1.4071   -2.7931   -1.0712 N.2       1 <0>        -0.4896
      6 C5         -1.3882   -4.0792   -0.7236 C.2       1 <0>         0.0659
      7 C6         -1.3817   -4.1334    0.6527 C.2       1 <0>        -0.1332
      8 N2         -1.3919   -2.8203    1.0938 N.pl3     1 <0>        -0.2435
      9 N3         -1.3825   -2.5794    2.4721 N.2       1 <0>        -0.3804
     10 C7         -1.3611   -3.5896    3.3115 C.2       1 <0>         0.3856
     11 N4         -1.3477   -4.8635    2.8932 N.2       1 <0>        -0.6634
     12 C8         -1.3637   -5.1706    1.6102 C.2       1 <0>         0.5160
     13 O1         -1.3482   -6.4650    1.2164 O.3       1 <0>        -0.6444
     14 C9         -1.3510   -3.3124    4.7674 C.ar      1 <0>        -0.0696
     15 C10        -1.3226   -4.3652    5.6804 C.ar      1 <0>         0.0723
     16 C11        -1.3133   -4.1018    7.0345 C.ar      1 <0>        -0.7301
     17 C12        -1.3321   -2.7951    7.4910 C.ar      1 <0>         0.0273
     18 C13        -1.3608   -1.7438    6.5951 C.ar      1 <0>        -0.2428
     19 C14        -1.3641   -1.9932    5.2316 C.ar      1 <0>         0.2183
     20 O2         -1.3862   -0.9606    4.3499 O.3       1 <0>        -0.2614
     21 C15        -1.3985    0.3595    4.8970 C.3       1 <0>         0.0448
     22 C16        -1.4229    1.3826    3.7597 C.3       1 <0>        -0.1490
     23 S1         -1.2780   -5.4337    8.1875 S.o2      1 <0>         2.6955
     24 O3         -1.8252   -4.9355    9.4005 O.2       1 <0>        -0.9613
     25 O4         -1.8158   -6.5654    7.5173 O.2       1 <0>        -0.9471
     26 N5          0.3135   -5.7760    8.4916 N.pl3     1 <0>        -0.9993
     27 C17         1.0454   -6.7536    7.6720 C.3       1 <0>         0.1257
     28 C18         2.3494   -6.1074    7.1922 C.3       1 <0>         0.0382
     29 N6          3.0902   -5.5890    8.3500 N.3       1 <0>        -0.5349
     30 C19         2.3371   -4.5289    9.0333 C.3       1 <0>         0.0355
     31 C20         1.0342   -5.1059    9.5847 C.3       1 <0>         0.1277
     32 C21         4.4231   -5.1157    7.9532 C.3       1 <0>         0.0491
     33 C22         5.2521   -4.8186    9.2044 C.3       1 <0>        -0.1481
     34 C23        -1.3761   -5.2575   -1.6630 C.3       1 <0>        -0.0570
     35 H1          1.0039    1.9031    0.0027 H         1 <0>         0.0513
     36 H2         -0.5459    1.8868   -0.8726 H         1 <0>         0.0538
     37 H3         -0.5289    1.8773    0.9072 H         1 <0>         0.0536
     38 H4          0.5123   -0.3556   -0.8948 H         1 <0>         0.0637
     39 H5          0.5293   -0.3651    0.8851 H         1 <0>         0.0604
     40 H6         -1.9435   -0.1821    0.9097 H         1 <0>         0.0786
     41 H7         -1.9605   -0.1726   -0.8702 H         1 <0>         0.0832
     42 H8         -1.3082   -5.3860    5.3281 H         1 <0>         0.1637
     43 H9         -1.3247   -2.5965    8.5525 H         1 <0>         0.1396
     44 H10        -1.3757   -0.7265    6.9575 H         1 <0>         0.1384
     45 H11        -2.2844    0.4866    5.5191 H         1 <0>         0.0614
     46 H12        -0.5047    0.5103    5.5023 H         1 <0>         0.0605
     47 H13        -1.4323    2.3896    4.1770 H         1 <0>         0.0741
     48 H14        -0.5370    1.2555    3.1375 H         1 <0>         0.0691
     49 H15        -2.3167    1.2318    3.1543 H         1 <0>         0.0679
     50 H16         1.2725   -7.6360    8.2702 H         1 <0>         0.0831
     51 H17         0.4391   -7.0371    6.8117 H         1 <0>         0.0995
     52 H18         2.9558   -6.8517    6.6760 H         1 <0>         0.0892
     53 H19         2.1202   -5.2882    6.5106 H         1 <0>         0.0436
     54 H20         2.9344   -4.1285    9.8524 H         1 <0>         0.0887
     55 H21         2.1080   -3.7317    8.3261 H         1 <0>         0.0397
     56 H22         0.4205   -4.3006    9.9884 H         1 <0>         0.0914
     57 H23         1.2602   -5.8269   10.3703 H         1 <0>         0.0814
     58 H24         4.9205   -5.8846    7.3620 H         1 <0>         0.0757
     59 H25         4.3241   -4.2075    7.3587 H         1 <0>         0.0329
     60 H26         6.2411   -4.4674    8.9100 H         1 <0>         0.0572
     61 H27         4.7547   -4.0497    9.7956 H         1 <0>         0.0540
     62 H28         5.3511   -5.7268    9.7988 H         1 <0>         0.0632
     63 H29        -0.3456   -5.5279   -1.8935 H         1 <0>         0.0620
     64 H30        -1.8769   -6.1032   -1.1917 H         1 <0>         0.0807
     65 H31        -1.8970   -4.9937   -2.5834 H         1 <0>         0.0597
@<TRIPOS>BOND
     1    1    2 1
     2    1   35 1
     3    1   36 1
     4    1   37 1
     5    2    3 1
     6    2   38 1
     7    2   39 1
     8    3    4 1
     9    3   40 1
    10    3   41 1
    11    4    8 1
    12    4    5 2
    13    5    6 1
    14    6    7 2
    15    6   34 1
    16    7   12 1
    17    7    8 1
    18    8    9 1
    19    9   10 2
    20   10   11 1
    21   10   14 1
    22   11   12 2
    23   12   13 1
    24   14   19 ar
    25   14   15 ar
    26   15   16 ar
    27   15   42 1
    28   16   17 ar
    29   16   23 1
    30   17   18 ar
    31   17   43 1
    32   18   19 ar
    33   18   44 1
    34   19   20 1
    35   20   21 1
    36   21   22 1
    37   21   45 1
    38   21   46 1
    39   22   47 1
    40   22   48 1
    41   22   49 1
    42   23   24 2
    43   23   25 2
    44   23   26 1
    45   26   31 1
    46   26   27 1
    47   27   28 1
    48   27   50 1
    49   27   51 1
    50   28   29 1
    51   28   52 1
    52   28   53 1
    53   29   30 1
    54   29   32 1
    55   30   31 1
    56   30   54 1
    57   30   55 1
    58   31   56 1
    59   31   57 1
    60   32   33 1
    61   32   58 1
    62   32   59 1
    63   33   60 1
    64   33   61 1
    65   33   62 1
    66   34   63 1
    67   34   64 1
    68   34   65 1
@<TRIPOS>MOLECULE
ZINC04632106
   31    32     0     0     0
SMALL
USER_CHARGES

@<TRIPOS>ATOM
      1 C1          0.0308    1.4960   -0.2073 C.3       1 <0>        -0.1171
      2 C2          0.0256   -0.0073   -0.1021 C.ar      1 <0>        -0.0863
      3 C3          0.0277   -0.7804   -1.2482 C.ar      1 <0>        -0.1216
      4 C4          0.0229   -2.1592   -1.1518 C.ar      1 <0>        -0.1231
      5 C5          0.0164   -2.7652    0.0909 C.ar      1 <0>        -0.1138
      6 C6          0.0151   -1.9923    1.2367 C.ar      1 <0>        -0.0656
      7 C7          0.0243   -0.6131    1.1402 C.ar      1 <0>        -0.0761
      8 C8          0.0282    0.2296    2.3895 C.3       1 <0>        -0.1202
      9 C9          0.0076   -2.6528    2.5912 C.3       1 <0>         0.0251
     10 H1          0.0907   -1.8918    3.3671 H         1 <0>         0.0965
     11 C10         1.1903   -3.6179    2.6946 C.3       1 <0>        -0.1417
     12 C11        -1.2799   -3.4151    2.7712 C.2       1 <0>         0.0179
     13 C12        -1.5193   -4.6735    2.3557 C.2       1 <0>        -0.0525
     14 N1         -2.8038   -4.9737    2.7212 N.pl3     1 <0>        -0.5703
     15 C13        -3.3050   -3.8875    3.3478 C.2       1 <0>         0.1845
     16 N2         -2.3864   -2.9611    3.3784 N.2       1 <0>        -0.4877
     17 H2          1.0597    1.8549   -0.2333 H         1 <0>         0.0699
     18 H3         -0.4826    1.7982   -1.1201 H         1 <0>         0.0649
     19 H4         -0.4809    1.9224    0.6555 H         1 <0>         0.0692
     20 H5          0.0328   -0.3071   -2.2189 H         1 <0>         0.1192
     21 H6          0.0239   -2.7632   -2.0471 H         1 <0>         0.1189
     22 H7          0.0119   -3.8426    0.1663 H         1 <0>         0.1166
     23 H8         -0.9935    0.3510    2.7492 H         1 <0>         0.0740
     24 H9          0.6276   -0.2606    3.1566 H         1 <0>         0.0694
     25 H10         0.4535    1.2082    2.1664 H         1 <0>         0.0672
     26 H11         1.1848   -4.0957    3.6743 H         1 <0>         0.0610
     27 H12         1.1071   -4.3790    1.9188 H         1 <0>         0.0573
     28 H13         2.1215   -3.0666    2.5645 H         1 <0>         0.0634
     29 H14        -0.8303   -5.3212    1.8340 H         1 <0>         0.1733
     30 H15        -4.2999   -3.8013    3.7591 H         1 <0>         0.2074
     31 H16        -3.2674   -5.8104    2.5602 H         1 <0>         0.4205
@<TRIPOS>BOND
     1    1    2 1
     2    1   17 1
     3    1   18 1
     4    1   19 1
     5    2    7 ar
     6    2    3 ar
     7    3    4 ar
     8    3   20 1
     9    4    5 ar
    10    4   21 1
    11    5    6 ar
    12    5   22 1
    13    6    7 ar
    14    6    9 1
    15    7    8 1
    16    8   23 1
    17    8   24 1
    18    8   25 1
    19    9   10 1
    20    9   11 1
    21    9   12 1
    22   11   26 1
    23   11   27 1
    24   11   28 1
    25   12   16 1
    26   12   13 2
    27   13   14 1
    28   13   29 1
    29   14   15 1
    30   14   31 1
    31   15   16 2
    32   15   30 1
@<TRIPOS>MOLECULE
ZINC01530622
   35    36     0     0     0
SMALL
USER_CHARGES

@<TRIPOS>ATOM
      1 C1          1.9706    1.5227   -0.6113 C.3       1 <0>        -0.1901
      2 C2          2.0331    0.0175   -0.8783 C.3       1 <0>        -0.0166
      3 N1          0.6897   -0.4778   -1.2066 N.4       1 <0>        -0.5102
      4 C3          0.7249   -1.9408   -1.3344 C.3       1 <0>         0.0898
      5 H1          1.1245   -2.3663   -0.4139 H         1 <0>         0.1605
      6 C4          1.6414   -2.3130   -2.4881 C.3       1 <0>        -0.1391
      7 C5          1.7889   -3.8373   -2.6062 C.3       1 <0>        -0.5474
      8 H2          1.9999   -4.2682   -1.6275 H         1 <0>         0.1563
      9 S1          0.1974   -4.4730   -3.2388 S.o2      1 <0>         2.5200
     10 O1          0.0102   -4.0894   -4.5942 O.2       1 <0>        -0.9047
     11 O2         -0.0037   -5.8169   -2.8233 O.2       1 <0>        -0.9086
     12 C6         -0.9641   -3.5264   -2.3262 C.2       1 <0>        -0.7494
     13 C7         -0.6926   -2.4524   -1.5395 C.2       1 <0>        -0.0815
     14 C8         -1.8018   -1.8542   -0.9304 C.2       1 <0>        -0.1095
     15 C9         -3.0430   -2.3516   -1.1299 C.2       1 <0>        -0.5879
     16 S2         -2.7169   -3.7304   -2.2144 S.3       1 <0>         0.3958
     17 S3         -4.5821   -1.7885   -0.4829 S.o2      1 <0>         2.5829
     18 O3         -5.4640   -2.9024   -0.5054 O.2       1 <0>        -1.0353
     19 O4         -4.2849   -1.0760    0.7101 O.2       1 <0>        -1.0410
     20 N2         -5.1890   -0.6826   -1.5558 N.2       1 <0>        -1.3241
     21 C10         2.9164   -4.1797   -3.5821 C.3       1 <0>        -0.1463
     22 H3          1.6018    2.0344   -1.5002 H         1 <0>         0.0835
     23 H4          1.2979    1.7158    0.2244 H         1 <0>         0.0839
     24 H5          2.9674    1.8902   -0.3677 H         1 <0>         0.1071
     25 H6          2.7058   -0.1756   -1.7140 H         1 <0>         0.1342
     26 H7          2.4019   -0.4942    0.0106 H         1 <0>         0.1337
     27 H8          0.0474   -0.2197   -0.4725 H         1 <0>         0.4355
     28 H9          1.2256   -1.9208   -3.4162 H         1 <0>         0.1110
     29 H10         2.6235   -1.8703   -2.3219 H         1 <0>         0.1226
     30 H11        -1.6652   -0.9902   -0.2970 H         1 <0>         0.1446
     31 H12        -6.0396   -0.2513   -1.3787 H         1 <0>         0.3366
     32 H13         3.8526   -3.7559   -3.2189 H         1 <0>         0.0913
     33 H14         3.0136   -5.2626   -3.6595 H         1 <0>         0.0838
     34 H15         2.6862   -3.7645   -4.5634 H         1 <0>         0.0848
     35 H16         0.3850   -0.0713   -2.0784 H         1 <0>         0.4340
@<TRIPOS>BOND
     1    1    2 1
     2    1   22 1
     3    1   23 1
     4    1   24 1
     5    2    3 1
     6    2   25 1
     7    2   26 1
     8    3    4 1
     9    3   27 1
    10    3   35 1
    11    4    5 1
    12    4   13 1
    13    4    6 1
    14    6    7 1
    15    6   28 1
    16    6   29 1
    17    7    8 1
    18    7    9 1
    19    7   21 1
    20    9   10 2
    21    9   11 2
    22    9   12 1
    23   12   16 1
    24   12   13 2
    25   13   14 1
    26   14   15 2
    27   14   30 1
    28   15   16 1
    29   15   17 1
    30   17   18 2
    31   17   19 2
    32   17   20 1
    33   20   31 1
    34   21   32 1
    35   21   33 1
    36   21   34 1
@<TRIPOS>MOLECULE
ZINC01530621
   35    36     0     0     0
SMALL
USER_CHARGES

@<TRIPOS>ATOM
      1 C1         -0.1492    1.5288   -2.3323 C.3       1 <0>        -0.1899
      2 C2         -0.1164   -0.0009   -2.3383 C.3       1 <0>        -0.0168
      3 N1          0.6897   -0.4778   -1.2066 N.4       1 <0>        -0.5101
      4 C3          0.6171   -1.9434   -1.1370 C.3       1 <0>         0.0836
      5 H1         -0.4294   -2.2430   -1.0818 H         1 <0>         0.1646
      6 C4          1.2315   -2.5278   -2.3982 C.3       1 <0>        -0.1369
      7 C5          1.0962   -4.0576   -2.4201 C.3       1 <0>        -0.5464
      8 H2          1.3613   -4.4411   -3.4054 H         1 <0>         0.1665
      9 S1          2.2539   -4.7069   -1.1650 S.o2      1 <0>         2.5192
     10 O1          3.5991   -4.5241   -1.5850 O.2       1 <0>        -0.9107
     11 O2          1.8041   -5.9618   -0.6729 O.2       1 <0>        -0.9035
     12 C6          2.0269   -3.5802    0.1606 C.2       1 <0>        -0.7471
     13 C7          1.3317   -2.4135    0.1206 C.2       1 <0>        -0.0802
     14 C8          1.3152   -1.6792    1.3120 C.2       1 <0>        -0.1090
     15 C9          1.9529   -2.1428    2.4103 C.2       1 <0>        -0.5881
     16 S2          2.6320   -3.6831    1.8188 S.3       1 <0>         0.3963
     17 S3          2.0784   -1.4167    4.0108 S.o2      1 <0>         2.5827
     18 O3          3.2503   -1.9529    4.6093 O.2       1 <0>        -1.0359
     19 O4          1.8813   -0.0198    3.8397 O.2       1 <0>        -1.0427
     20 N2          0.7966   -1.9699    4.9014 N.2       1 <0>        -1.3223
     21 C10        -0.3376   -4.4611   -2.0706 C.3       1 <0>        -0.1530
     22 H3         -0.5902    1.8790   -1.3990 H         1 <0>         0.0843
     23 H4          0.8664    1.9144   -2.4215 H         1 <0>         0.0823
     24 H5         -0.7473    1.8826   -3.1720 H         1 <0>         0.1074
     25 H6         -1.1320   -0.3865   -2.2491 H         1 <0>         0.1347
     26 H7          0.3246   -0.3511   -3.2716 H         1 <0>         0.1340
     27 H8          1.6496   -0.1943   -1.3342 H         1 <0>         0.4317
     28 H9          0.7251   -2.1113   -3.2689 H         1 <0>         0.1221
     29 H10         2.2877   -2.2615   -2.4382 H         1 <0>         0.1096
     30 H11         0.7901   -0.7364    1.3541 H         1 <0>         0.1443
     31 H12         0.6850   -1.6827    5.8211 H         1 <0>         0.3366
     32 H13        -1.0243   -4.0299   -2.7990 H         1 <0>         0.0883
     33 H14        -0.4240   -5.5475   -2.0887 H         1 <0>         0.0947
     34 H15        -0.5861   -4.0934   -1.0750 H         1 <0>         0.0739
     35 H16         0.3332   -0.0823   -0.3495 H         1 <0>         0.4358
@<TRIPOS>BOND
     1    1    2 1
     2    1   22 1
     3    1   23 1
     4    1   24 1
     5    2    3 1
     6    2   25 1
     7    2   26 1
     8    3    4 1
     9    3   27 1
    10    3   35 1
    11    4    5 1
    12    4   13 1
    13    4    6 1
    14    6    7 1
    15    6   28 1
    16    6   29 1
    17    7    8 1
    18    7    9 1
    19    7   21 1
    20    9   10 2
    21    9   11 2
    22    9   12 1
    23   12   16 1
    24   12   13 2
    25   13   14 1
    26   14   15 2
    27   14   30 1
    28   15   16 1
    29   15   17 1
    30   17   18 2
    31   17   19 2
    32   17   20 1
    33   20   31 1
    34   21   32 1
    35   21   33 1
    36   21   34 1
@<TRIPOS>MOLECULE
ZINC03875543
   39    41     0     0     0
SMALL
USER_CHARGES

@<TRIPOS>ATOM
      1 C1          0.5599    1.5583   -0.4135 C.3       1 <0>        -0.2043
      2 C2          0.3407    0.0758   -0.2546 C.2       1 <0>         0.3478
      3 O1          0.2420   -0.4051    0.8487 O.2       1 <0>        -0.4469
      4 C3          0.2446   -0.8065   -1.4725 C.3       1 <0>        -0.1624
      5 C4          0.0229   -2.2561   -1.0359 C.3       1 <0>         0.0401
      6 H1          0.7769   -2.5329   -0.2990 H         1 <0>         0.0966
      7 C5         -1.3488   -2.3931   -0.4269 C.ar      1 <0>        -0.0646
      8 C6         -2.4665   -2.0221   -1.1508 C.ar      1 <0>        -0.1206
      9 C7         -3.7247   -2.1477   -0.5922 C.ar      1 <0>        -0.1260
     10 C8         -3.8653   -2.6448    0.6900 C.ar      1 <0>        -0.1240
     11 C9         -2.7476   -3.0167    1.4135 C.ar      1 <0>        -0.1217
     12 C10        -1.4897   -2.8950    0.8533 C.ar      1 <0>        -0.0837
     13 C11         0.1338   -3.1640   -2.2335 C.2       1 <0>        -0.3142
     14 C12         0.3635   -4.5449   -2.0587 C.2       1 <0>         0.4367
     15 O2          0.4765   -5.0336   -0.9463 O.2       1 <0>        -0.4594
     16 C13         0.4613   -5.3757   -3.2762 C.ar      1 <0>        -0.2142
     17 C14         0.6862   -6.7488   -3.2010 C.ar      1 <0>        -0.0309
     18 C15         0.7705   -7.4884   -4.3607 C.ar      1 <0>        -0.1427
     19 C16         0.6330   -6.8712   -5.5953 C.ar      1 <0>        -0.0593
     20 C17         0.4102   -5.5134   -5.6820 C.ar      1 <0>        -0.1364
     21 C18         0.3216   -4.7504   -4.5242 C.ar      1 <0>         0.1501
     22 O3          0.1030   -3.4199   -4.5859 O.3       1 <0>        -0.2577
     23 C19         0.0076   -2.6589   -3.4884 C.2       1 <0>         0.3549
     24 O4         -0.2179   -1.3361   -3.6348 O.3       1 <0>        -0.4061
     25 H2          1.6295    1.7682   -0.4252 H         1 <0>         0.0939
     26 H3          0.1137    1.8932   -1.3499 H         1 <0>         0.0830
     27 H4          0.0952    2.0857    0.4195 H         1 <0>         0.0836
     28 H5         -0.5916   -0.4816   -2.0915 H         1 <0>         0.1220
     29 H6          1.1693   -0.7370   -2.0454 H         1 <0>         0.1020
     30 H7         -2.3567   -1.6337   -2.1525 H         1 <0>         0.1148
     31 H8         -4.5979   -1.8572   -1.1575 H         1 <0>         0.1178
     32 H9         -4.8482   -2.7423    1.1266 H         1 <0>         0.1185
     33 H10        -2.8573   -3.4047    2.4154 H         1 <0>         0.1199
     34 H11        -0.6167   -3.1890    1.4172 H         1 <0>         0.1214
     35 H12         0.7941   -7.2302   -2.2403 H         1 <0>         0.1447
     36 H13         0.9447   -8.5529   -4.3081 H         1 <0>         0.1387
     37 H14         0.7015   -7.4603   -6.4979 H         1 <0>         0.1432
     38 H15         0.3051   -5.0433   -6.6486 H         1 <0>         0.1442
     39 H16        -0.2963   -1.0500   -4.5551 H         1 <0>         0.4012
@<TRIPOS>BOND
     1    1    2 1
     2    1   25 1
     3    1   26 1
     4    1   27 1
     5    2    3 2
     6    2    4 1
     7    4    5 1
     8    4   28 1
     9    4   29 1
    10    5    6 1
    11    5    7 1
    12    5   13 1
    13    7   12 ar
    14    7    8 ar
    15    8    9 ar
    16    8   30 1
    17    9   10 ar
    18    9   31 1
    19   10   11 ar
    20   10   32 1
    21   11   12 ar
    22   11   33 1
    23   12   34 1
    24   13   23 2
    25   13   14 1
    26   14   15 2
    27   14   16 1
    28   16   21 ar
    29   16   17 ar
    30   17   18 ar
    31   17   35 1
    32   18   19 ar
    33   18   36 1
    34   19   20 ar
    35   19   37 1
    36   20   21 ar
    37   20   38 1
    38   21   22 1
    39   22   23 1
    40   23   24 1
    41   24   39 1
@<TRIPOS>MOLECULE
ZINC03875999
   41    43     0     0     0
SMALL
USER_CHARGES

@<TRIPOS>ATOM
      1 C1          0.5599    1.5583   -0.4135 C.3       1 <0>        -0.2049
      2 C2          0.3407    0.0758   -0.2546 C.2       1 <0>         0.3478
      3 O1          0.2420   -0.4051    0.8487 O.2       1 <0>        -0.4494
      4 C3          0.2446   -0.8065   -1.4725 C.3       1 <0>        -0.1649
      5 C4          0.0229   -2.2561   -1.0359 C.3       1 <0>         0.0347
      6 H1          0.7769   -2.5329   -0.2990 H         1 <0>         0.1065
      7 C5         -1.3488   -2.3931   -0.4269 C.ar      1 <0>        -0.0128
      8 C6         -2.4665   -2.0221   -1.1508 C.ar      1 <0>        -0.1209
      9 C7         -3.7247   -2.1477   -0.5922 C.ar      1 <0>        -0.0575
     10 C8         -3.8653   -2.6448    0.6900 C.ar      1 <0>        -0.0538
     11 C9         -2.7476   -3.0167    1.4135 C.ar      1 <0>        -0.0535
     12 C10        -1.4897   -2.8950    0.8533 C.ar      1 <0>        -0.0837
     13 N1         -5.2125   -2.7785    1.2884 N.pl3     1 <0>         0.0350
     14 O2         -6.1899   -2.4529    0.6558 O.2       1 <0>        -0.1627
     15 O3         -5.3354   -3.2132    2.4098 O.3       1 <0>        -0.1595
     16 C11         0.1338   -3.1640   -2.2335 C.2       1 <0>        -0.3257
     17 C12         0.3635   -4.5449   -2.0587 C.2       1 <0>         0.4374
     18 O4          0.4765   -5.0336   -0.9463 O.2       1 <0>        -0.4605
     19 C13         0.4613   -5.3757   -3.2762 C.ar      1 <0>        -0.2144
     20 C14         0.6862   -6.7488   -3.2010 C.ar      1 <0>        -0.0306
     21 C15         0.7705   -7.4884   -4.3607 C.ar      1 <0>        -0.1404
     22 C16         0.6330   -6.8712   -5.5953 C.ar      1 <0>        -0.0576
     23 C17         0.4102   -5.5134   -5.6820 C.ar      1 <0>        -0.1344
     24 C18         0.3216   -4.7504   -4.5242 C.ar      1 <0>         0.1481
     25 O5          0.1030   -3.4199   -4.5859 O.3       1 <0>        -0.2552
     26 C19         0.0076   -2.6589   -3.4884 C.2       1 <0>         0.3660
     27 O6         -0.2179   -1.3361   -3.6348 O.3       1 <0>        -0.4074
     28 H2          1.6295    1.7682   -0.4252 H         1 <0>         0.0965
     29 H3          0.1137    1.8932   -1.3499 H         1 <0>         0.0847
     30 H4          0.0952    2.0857    0.4195 H         1 <0>         0.0852
     31 H5         -0.5916   -0.4816   -2.0915 H         1 <0>         0.1243
     32 H6          1.1693   -0.7370   -2.0454 H         1 <0>         0.1098
     33 H7         -2.3567   -1.6337   -2.1525 H         1 <0>         0.1407
     34 H8         -4.5979   -1.8572   -1.1575 H         1 <0>         0.1512
     35 H9         -2.8573   -3.4046    2.4154 H         1 <0>         0.1530
     36 H10        -0.6167   -3.1890    1.4172 H         1 <0>         0.1483
     37 H11         0.7941   -7.2302   -2.2403 H         1 <0>         0.1455
     38 H12         0.9447   -8.5529   -4.3081 H         1 <0>         0.1400
     39 H13         0.7015   -7.4603   -6.4979 H         1 <0>         0.1446
     40 H14         0.3051   -5.0433   -6.6486 H         1 <0>         0.1455
     41 H15        -0.2963   -1.0500   -4.5551 H         1 <0>         0.4051
@<TRIPOS>BOND
     1    1    2 1
     2    1   28 1
     3    1   29 1
     4    1   30 1
     5    2    3 2
     6    2    4 1
     7    4    5 1
     8    4   31 1
     9    4   32 1
    10    5    6 1
    11    5    7 1
    12    5   16 1
    13    7   12 ar
    14    7    8 ar
    15    8    9 ar
    16    8   33 1
    17    9   10 ar
    18    9   34 1
    19   10   11 ar
    20   10   13 1
    21   11   12 ar
    22   11   35 1
    23   12   36 1
    24   13   14 2
    25   13   15 1
    26   16   26 2
    27   16   17 1
    28   17   18 2
    29   17   19 1
    30   19   24 ar
    31   19   20 ar
    32   20   21 ar
    33   20   37 1
    34   21   22 ar
    35   21   38 1
    36   22   23 ar
    37   22   39 1
    38   23   24 ar
    39   23   40 1
    40   24   25 1
    41   25   26 1
    42   26   27 1
    43   27   41 1
@<TRIPOS>MOLECULE
ZINC03876000
   41    43     0     0     0
SMALL
USER_CHARGES

@<TRIPOS>ATOM
      1 C1          1.8724    0.4408    1.0929 C.3       1 <0>        -0.2063
      2 C2          1.3105   -0.8465    0.5466 C.2       1 <0>         0.3566
      3 O1          1.5400   -1.8913    1.1069 O.2       1 <0>        -0.4547
      4 C3          0.4622   -0.8298   -0.6989 C.3       1 <0>        -0.1821
      5 C4          0.0229   -2.2561   -1.0359 C.3       1 <0>         0.0406
      6 H1          0.8990   -2.9020   -1.0935 H         1 <0>         0.1063
      7 C5         -0.6930   -2.2611   -2.3619 C.ar      1 <0>        -0.0245
      8 C6         -1.4128   -1.1511   -2.7630 C.ar      1 <0>        -0.0973
      9 C7         -2.0695   -1.1557   -3.9794 C.ar      1 <0>        -0.0556
     10 C8         -2.0061   -2.2701   -4.7949 C.ar      1 <0>        -0.0532
     11 C9         -1.2856   -3.3797   -4.3942 C.ar      1 <0>        -0.0571
     12 C10        -0.6254   -3.3735   -3.1797 C.ar      1 <0>        -0.1131
     13 N1         -2.7101   -2.2754   -6.0969 N.pl3     1 <0>         0.0340
     14 O2         -3.3406   -1.3051   -6.4472 O.2       1 <0>        -0.1595
     15 O3         -2.6547   -3.2500   -6.8102 O.3       1 <0>        -0.1619
     16 C11        -0.9051   -2.7628    0.0380 C.2       1 <0>        -0.3302
     17 C12        -2.0464   -2.0167    0.4001 C.2       1 <0>         0.4410
     18 O4         -2.3082   -0.9548   -0.1410 O.2       1 <0>        -0.4723
     19 C13        -2.9120   -2.5727    1.4600 C.ar      1 <0>        -0.2164
     20 C14        -4.0604   -1.9061    1.8826 C.ar      1 <0>        -0.0305
     21 C15        -4.8413   -2.4591    2.8742 C.ar      1 <0>        -0.1424
     22 C16        -4.4876   -3.6708    3.4491 C.ar      1 <0>        -0.0574
     23 C17        -3.3536   -4.3394    3.0391 C.ar      1 <0>        -0.1356
     24 C18        -2.5533   -3.7987    2.0403 C.ar      1 <0>         0.1503
     25 O5         -1.4395   -4.4366    1.6231 O.3       1 <0>        -0.2579
     26 C19        -0.6511   -3.9438    0.6596 C.2       1 <0>         0.3914
     27 O6          0.4425   -4.6459    0.2950 O.3       1 <0>        -0.4056
     28 H2          2.8503    0.6276    0.6492 H         1 <0>         0.0963
     29 H3          1.1997    1.2631    0.8493 H         1 <0>         0.0854
     30 H4          1.9735    0.3626    2.1754 H         1 <0>         0.0838
     31 H5         -0.4177   -0.2087   -0.5309 H         1 <0>         0.1241
     32 H6          1.0415   -0.4226   -1.5276 H         1 <0>         0.1050
     33 H7         -1.4623   -0.2805   -2.1259 H         1 <0>         0.1582
     34 H8         -2.6324   -0.2888   -4.2924 H         1 <0>         0.1527
     35 H9         -1.2364   -4.2505   -5.0312 H         1 <0>         0.1522
     36 H10        -0.0594   -4.2390   -2.8684 H         1 <0>         0.1449
     37 H11        -4.3363   -0.9623    1.4362 H         1 <0>         0.1455
     38 H12        -5.7324   -1.9466    3.2054 H         1 <0>         0.1395
     39 H13        -5.1065   -4.0947    4.2260 H         1 <0>         0.1442
     40 H14        -3.0876   -5.2821    3.4940 H         1 <0>         0.1451
     41 H15         0.5578   -5.4744    0.7801 H         1 <0>         0.4162
@<TRIPOS>BOND
     1    1    2 1
     2    1   28 1
     3    1   29 1
     4    1   30 1
     5    2    3 2
     6    2    4 1
     7    4    5 1
     8    4   31 1
     9    4   32 1
    10    5    6 1
    11    5    7 1
    12    5   16 1
    13    7   12 ar
    14    7    8 ar
    15    8    9 ar
    16    8   33 1
    17    9   10 ar
    18    9   34 1
    19   10   11 ar
    20   10   13 1
    21   11   12 ar
    22   11   35 1
    23   12   36 1
    24   13   14 2
    25   13   15 1
    26   16   26 2
    27   16   17 1
    28   17   18 2
    29   17   19 1
    30   19   24 ar
    31   19   20 ar
    32   20   21 ar
    33   20   37 1
    34   21   22 ar
    35   21   38 1
    36   22   23 ar
    37   22   39 1
    38   23   24 ar
    39   23   40 1
    40   24   25 1
    41   25   26 1
    42   26   27 1
    43   27   41 1
@<TRIPOS>MOLECULE
ZINC12859773
   21    20     0     0     0
SMALL
USER_CHARGES

@<TRIPOS>ATOM
      1 C1          0.1008    1.1721   -0.0671 C.3       1 <0>         0.0759
      2 N1         -0.1584   -0.2608   -0.2281 N.pl3     1 <0>        -0.5627
      3 C2         -0.4147   -1.0955    0.9482 C.3       1 <0>         0.0549
      4 C3         -0.1611   -0.8244   -1.4881 C.cat     1 <0>         0.7119
      5 N2          0.0748   -0.0561   -2.5708 N.2       1 <0>        -0.6554
      6 C4          0.8668   -0.4944   -3.5310 C.2       1 <0>         0.7231
      7 N3          1.5503   -1.6671   -3.3710 N.pl3     1 <0>        -0.8679
      8 N4          1.0036    0.2244   -4.6855 N.pl3     1 <0>        -0.7910
      9 N5         -0.3929   -2.1057   -1.6321 N.pl3     1 <0>        -0.8088
     10 H1          1.1713    1.3360    0.0562 H         1 <0>         0.0780
     11 H2         -0.2491    1.7061   -0.9506 H         1 <0>         0.1006
     12 H3         -0.4269    1.5401    0.8127 H         1 <0>         0.0943
     13 H4         -1.4845   -1.1112    1.1565 H         1 <0>         0.0872
     14 H5         -0.0671   -2.1106    0.7561 H         1 <0>         0.0808
     15 H6          0.1168   -0.6859    1.8072 H         1 <0>         0.1096
     16 H7          0.5185    1.0567   -4.7990 H         1 <0>         0.4396
     17 H8          1.5858   -0.0978   -5.3913 H         1 <0>         0.4288
     18 H9         -0.3754   -2.5054   -2.5157 H         1 <0>         0.4332
     19 H10         1.5414   -2.1206   -2.5136 H         1 <0>         0.4201
     20 H11         2.0444   -2.0459   -4.1149 H         1 <0>         0.4232
     21 H12        -0.5820   -2.6546   -0.8551 H         1 <0>         0.4249
@<TRIPOS>BOND
     1    1    2 1
     2    1   10 1
     3    1   11 1
     4    1   12 1
     5    2    3 1
     6    2    4 1
     7    3   13 1
     8    3   14 1
     9    3   15 1
    10    4    5 1
    11    4    9 2
    12    5    6 2
    13    6    7 1
    14    6    8 1
    15    7   19 1
    16    7   20 1
    17    8   16 1
    18    8   17 1
    19    9   18 1
    20    9   21 1
@<TRIPOS>MOLECULE
ZINC19796155
   43    46     0     0     0
SMALL
USER_CHARGES

@<TRIPOS>ATOM
      1 C1         -0.0523    1.4387   -0.3863 C.3       1 <0>        -0.0469
      2 N1         -0.0147   -0.0168   -0.1908 N.4       1 <0>        -0.3852
      3 C2          0.4863   -0.6601   -1.4120 C.3       1 <0>        -0.0213
      4 C3          0.4181   -2.1823   -1.2510 C.3       1 <0>         0.1002
      5 N2          1.1441   -2.5548   -0.0269 N.pl3     1 <0>        -0.6180
      6 C4          0.8178   -1.8405    1.2170 C.3       1 <0>         0.0860
      7 C5          0.8671   -0.3344    0.9395 C.3       1 <0>        -0.0221
      8 C6          2.1017   -3.5432   -0.0451 C.2       1 <0>         0.5019
      9 N3          2.4234   -4.0210   -1.1951 N.2       1 <0>        -0.5760
     10 C7          3.3217   -5.0050   -1.4750 C.ar      1 <0>         0.1390
     11 C8          3.0096   -5.9522   -2.4541 C.ar      1 <0>        -0.0932
     12 C9          3.9229   -6.9340   -2.7877 C.ar      1 <0>        -0.0267
     13 C10         5.1529   -6.9852   -2.1572 C.ar      1 <0>        -0.1032
     14 C11         5.4673   -6.0631   -1.1730 C.ar      1 <0>        -0.1031
     15 C12         4.5533   -5.0871   -0.8155 C.ar      1 <0>         0.1235
     16 N4          4.8505   -4.2243    0.2524 N.pl3     1 <0>        -0.7273
     17 C13         4.0239   -4.2464    1.3765 C.ar      1 <0>         0.2173
     18 C14         2.6645   -3.9489    1.2520 C.ar      1 <0>        -0.1537
     19 C15         1.8414   -4.0345    2.3754 C.ar      1 <0>        -0.0841
     20 C16         2.3802   -4.3733    3.6007 C.ar      1 <0>        -0.1334
     21 C17         3.7349   -4.6261    3.7220 C.ar      1 <0>        -0.0692
     22 C18         4.5500   -4.5705    2.6174 C.ar      1 <0>        -0.1369
     23 Cl1         3.5248   -8.1083   -4.0027 Cl        1 <0>        -0.0551
     24 H1          0.9534    1.8033   -0.5956 H         1 <0>         0.1211
     25 H2         -0.7066    1.6758   -1.2253 H         1 <0>         0.1256
     26 H3         -0.4316    1.9169    0.5167 H         1 <0>         0.1252
     27 H4         -0.1269   -0.3565   -2.2605 H         1 <0>         0.1425
     28 H5          1.5196   -0.3587   -1.5839 H         1 <0>         0.1315
     29 H6         -0.6226   -2.4957   -1.1694 H         1 <0>         0.0898
     30 H7          0.8819   -2.6629   -2.1125 H         1 <0>         0.1431
     31 H8         -0.1827   -2.1194    1.5479 H         1 <0>         0.0960
     32 H9          1.5457   -2.0950    1.9873 H         1 <0>         0.1385
     33 H10         1.8889   -0.0428    0.6965 H         1 <0>         0.1320
     34 H11         0.5345    0.2092    1.8238 H         1 <0>         0.1439
     35 H12         2.0515   -5.9169   -2.9512 H         1 <0>         0.1396
     36 H13         5.8689   -7.7454   -2.4325 H         1 <0>         0.1422
     37 H14         6.4287   -6.1057   -0.6827 H         1 <0>         0.1382
     38 H15         5.6134   -3.6267    0.2096 H         1 <0>         0.4129
     39 H16         0.7836   -3.8354    2.2868 H         1 <0>         0.1314
     40 H17         1.7411   -4.4409    4.4686 H         1 <0>         0.1357
     41 H18         4.1512   -4.8742    4.6872 H         1 <0>         0.1370
     42 H19         5.6063   -4.7705    2.7202 H         1 <0>         0.1363
     43 H20        -0.9456   -0.3526    0.0057 H         1 <0>         0.4250
@<TRIPOS>BOND
     1    1    2 1
     2    1   24 1
     3    1   25 1
     4    1   26 1
     5    2    7 1
     6    2    3 1
     7    2   43 1
     8    3    4 1
     9    3   27 1
    10    3   28 1
    11    4    5 1
    12    4   29 1
    13    4   30 1
    14    5    6 1
    15    5    8 1
    16    6    7 1
    17    6   31 1
    18    6   32 1
    19    7   33 1
    20    7   34 1
    21    8   18 1
    22    8    9 2
    23    9   10 1
    24   10   15 ar
    25   10   11 ar
    26   11   12 ar
    27   11   35 1
    28   12   13 ar
    29   12   23 1
    30   13   14 ar
    31   13   36 1
    32   14   15 ar
    33   14   37 1
    34   15   16 1
    35   16   17 1
    36   16   38 1
    37   17   22 ar
    38   17   18 ar
    39   18   19 ar
    40   19   20 ar
    41   19   39 1
    42   20   21 ar
    43   20   40 1
    44   21   22 ar
    45   21   41 1
    46   22   42 1
@<TRIPOS>MOLECULE
ZINC38664623
   75    78     0     0     0
SMALL
USER_CHARGES

@<TRIPOS>ATOM
      1 C1          0.6570   -1.6412    0.9637 C.3       1 <0>        -0.1517
      2 C2         -0.6129   -1.7566    0.1181 C.3       1 <0>         0.0478
      3 N1         -1.3322   -0.4759    0.1378 N.3       1 <0>        -0.5266
      4 C3         -2.3296   -0.4158   -0.9391 C.3       1 <0>         0.0481
      5 C4         -1.6181   -0.4129   -2.2936 C.3       1 <0>        -0.1473
      6 C5         -1.9564   -0.2427    1.4470 C.3       1 <0>         0.0617
      7 C6         -2.3316    1.2115    1.5727 C.2       1 <0>         0.4597
      8 O1         -2.0115    1.9947    0.7102 O.2       1 <0>        -0.4803
      9 O2         -3.0214    1.6365    2.6429 O.3       1 <0>        -0.3381
     10 C7         -3.3431    3.0278    2.6966 C.3       1 <0>         0.0092
     11 C8         -4.1126    3.3170    3.9597 C.2       1 <0>         0.3416
     12 O3         -4.3601    2.4238    4.7338 O.2       1 <0>        -0.4061
     13 C9         -4.5718    4.7159    4.2555 C.3       1 <0>         0.0994
     14 C10        -3.4719    5.4644    5.0572 C.3       1 <0>        -0.1464
     15 C11        -4.0324    5.6591    6.4927 C.3       1 <0>        -0.1155
     16 C12        -5.1376    4.5897    6.5662 C.3       1 <0>        -0.0847
     17 H1         -4.6538    3.6020    6.6331 H         1 <0>         0.0884
     18 C13        -5.7981    4.7427    5.1817 C.3       1 <0>        -0.0201
     19 C14        -6.8557    3.6966    4.9503 C.3       1 <0>        -0.1400
     20 C15        -7.3498    3.1349    6.3071 C.3       1 <0>         0.1245
     21 H2         -6.5859    2.4508    6.6947 H         1 <0>         0.0580
     22 C16        -7.5190    4.2999    7.2659 C.3       1 <0>        -0.0580
     23 H3         -7.9709    5.1358    6.7058 H         1 <0>         0.0807
     24 C17        -6.1029    4.7207    7.7046 C.3       1 <0>        -0.0767
     25 H4         -5.7480    3.9837    8.4516 H         1 <0>         0.0725
     26 C18        -6.1175    6.0554    8.4245 C.3       1 <0>        -0.1069
     27 C19        -6.9338    5.8663    9.7219 C.3       1 <0>        -0.1006
     28 C20        -8.3081    5.3791    9.2933 C.2       1 <0>        -0.0286
     29 C21        -9.3610    6.1081    9.6440 C.2       1 <0>        -0.2412
     30 C22       -10.7060    5.7376    9.1893 C.2       1 <0>         0.3884
     31 O4        -11.7132    6.1346    9.7310 O.2       1 <0>        -0.4570
     32 C23       -10.7499    4.8490    7.9575 C.3       1 <0>        -0.1665
     33 C24        -9.8117    3.6736    8.2252 C.3       1 <0>        -0.1073
     34 C25        -8.3886    4.0993    8.4897 C.3       1 <0>        -0.0066
     35 C26        -7.7896    2.9887    9.3546 C.3       1 <0>        -0.1512
     36 O5         -8.5518    2.4112    6.0791 O.3       1 <0>        -0.5570
     37 C27        -6.4231    6.1402    5.0240 C.3       1 <0>        -0.1383
     38 O6         -4.8598    5.4185    3.0464 O.3       1 <0>        -0.5337
     39 H5          1.1880   -2.5930    0.9535 H         1 <0>         0.0634
     40 H6          1.2988   -0.8627    0.5511 H         1 <0>         0.0656
     41 H7          0.3890   -1.3856    1.9888 H         1 <0>         0.0530
     42 H8         -0.3445   -2.0069   -0.9082 H         1 <0>         0.0872
     43 H9         -1.2522   -2.5387    0.5276 H         1 <0>         0.0398
     44 H10        -2.9860   -1.2837   -0.8753 H         1 <0>         0.0355
     45 H11        -2.9201    0.4947   -0.8370 H         1 <0>         0.0769
     46 H12        -2.3582   -0.3683   -3.0926 H         1 <0>         0.0609
     47 H13        -0.9618    0.4550   -2.3574 H         1 <0>         0.0665
     48 H14        -1.0276   -1.3234   -2.3958 H         1 <0>         0.0558
     49 H15        -2.8515   -0.8580    1.5376 H         1 <0>         0.0799
     50 H16        -1.2529   -0.5060    2.2369 H         1 <0>         0.1213
     51 H17        -2.4240    3.6138    2.6889 H         1 <0>         0.1025
     52 H18        -3.9509    3.2939    1.8319 H         1 <0>         0.1069
     53 H19        -2.5650    4.8631    5.0889 H         1 <0>         0.0714
     54 H20        -3.2717    6.4307    4.5987 H         1 <0>         0.0916
     55 H21        -3.2549    5.4443    7.2307 H         1 <0>         0.0711
     56 H22        -4.4212    6.6593    6.6364 H         1 <0>         0.0835
     57 H23        -7.7165    4.1635    4.4458 H         1 <0>         0.0735
     58 H24        -6.5187    2.8744    4.3295 H         1 <0>         0.0677
     59 H25        -5.1024    6.3528    8.6821 H         1 <0>         0.0771
     60 H26        -6.5893    6.8167    7.8104 H         1 <0>         0.0715
     61 H27        -6.4481    5.1426   10.3645 H         1 <0>         0.0855
     62 H28        -7.0255    6.8239   10.2318 H         1 <0>         0.0785
     63 H29        -9.2259    6.9825   10.2698 H         1 <0>         0.1327
     64 H30       -11.7645    4.4877    7.7980 H         1 <0>         0.0902
     65 H31       -10.4089    5.4065    7.0864 H         1 <0>         0.0963
     66 H32       -10.1708    3.1772    9.1439 H         1 <0>         0.0571
     67 H33        -9.8905    2.9577    7.4310 H         1 <0>         0.1117
     68 H34        -6.7831    3.2712    9.6630 H         1 <0>         0.0616
     69 H35        -8.4118    2.8401   10.2372 H         1 <0>         0.0574
     70 H36        -7.7473    2.0635    8.7799 H         1 <0>         0.0669
     71 H37        -8.4534    1.6675    5.4690 H         1 <0>         0.3781
     72 H38        -6.8189    6.2493    4.0143 H         1 <0>         0.0672
     73 H39        -7.2310    6.2604    5.7458 H         1 <0>         0.0610
     74 H40        -5.6623    6.9005    5.2002 H         1 <0>         0.0611
     75 H41        -4.1068    5.4892    2.4437 H         1 <0>         0.3784
@<TRIPOS>BOND
     1    1    2 1
     2    1   39 1
     3    1   40 1
     4    1   41 1
     5    2    3 1
     6    2   42 1
     7    2   43 1
     8    3    4 1
     9    3    6 1
    10    4    5 1
    11    4   44 1
    12    4   45 1
    13    5   46 1
    14    5   47 1
    15    5   48 1
    16    6    7 1
    17    6   49 1
    18    6   50 1
    19    7    8 2
    20    7    9 1
    21    9   10 1
    22   10   11 1
    23   10   51 1
    24   10   52 1
    25   11   12 2
    26   11   13 1
    27   13   18 1
    28   13   14 1
    29   13   38 1
    30   14   15 1
    31   14   53 1
    32   14   54 1
    33   15   16 1
    34   15   55 1
    35   15   56 1
    36   16   17 1
    37   16   24 1
    38   16   18 1
    39   18   19 1
    40   18   37 1
    41   19   20 1
    42   19   57 1
    43   19   58 1
    44   20   21 1
    45   20   22 1
    46   20   36 1
    47   22   23 1
    48   22   34 1
    49   22   24 1
    50   24   25 1
    51   24   26 1
    52   26   27 1
    53   26   59 1
    54   26   60 1
    55   27   28 1
    56   27   61 1
    57   27   62 1
    58   28   34 1
    59   28   29 2
    60   29   30 1
    61   29   63 1
    62   30   31 2
    63   30   32 1
    64   32   33 1
    65   32   64 1
    66   32   65 1
    67   33   34 1
    68   33   66 1
    69   33   67 1
    70   34   35 1
    71   35   68 1
    72   35   69 1
    73   35   70 1
    74   36   71 1
    75   37   72 1
    76   37   73 1
    77   37   74 1
    78   38   75 1
@<TRIPOS>MOLECULE
ZINC38664624
   75    78     0     0     0
SMALL
USER_CHARGES

@<TRIPOS>ATOM
      1 C1          0.2917   -2.4367    3.9649 C.3       1 <0>        -0.1531
      2 C2          0.2923   -2.2260    2.4495 C.3       1 <0>         0.0482
      3 N1          0.0191   -0.8137    2.1514 N.3       1 <0>        -0.5266
      4 C3          0.3107   -0.5066    0.7448 C.3       1 <0>         0.0485
      5 C4          1.8132   -0.6477    0.4929 C.3       1 <0>        -0.1472
      6 C5         -1.3664   -0.4626    2.4906 C.3       1 <0>         0.0601
      7 C6         -1.4961    1.0359    2.5850 C.2       1 <0>         0.4599
      8 O1         -0.5281    1.7381    2.4126 O.2       1 <0>        -0.4806
      9 O2         -2.6870    1.5904    2.8607 O.3       1 <0>        -0.3417
     10 C7         -2.7369    3.0166    2.9351 C.3       1 <0>         0.0196
     11 C8         -4.1440    3.4542    3.2511 C.2       1 <0>         0.3401
     12 O3         -5.0142    2.6298    3.3974 O.2       1 <0>        -0.4108
     13 C9         -4.4643    4.9174    3.3841 C.3       1 <0>         0.0992
     14 C10        -5.9578    5.1760    3.0574 C.3       1 <0>        -0.1478
     15 C11        -6.5428    5.9510    4.2723 C.3       1 <0>        -0.1141
     16 C12        -5.2786    6.5580    4.9037 C.3       1 <0>        -0.0735
     17 H1         -4.9058    7.3471    4.2280 H         1 <0>         0.0849
     18 C13        -4.3090    5.3608    4.8510 C.3       1 <0>        -0.0280
     19 C14        -2.9156    5.7706    5.2592 C.3       1 <0>        -0.1460
     20 C15        -2.9767    7.0356    6.1485 C.3       1 <0>         0.1259
     21 H2         -3.1386    7.9054    5.5002 H         1 <0>         0.0561
     22 C16        -4.1486    6.8944    7.1034 C.3       1 <0>        -0.0594
     23 H3         -4.1641    5.8546    7.4695 H         1 <0>         0.0795
     24 C17        -5.4278    7.1365    6.2773 C.3       1 <0>        -0.0792
     25 H4         -5.5199    8.2274    6.1101 H         1 <0>         0.0738
     26 C18        -6.6706    6.7340    7.0461 C.3       1 <0>        -0.1073
     27 C19        -6.7695    7.6676    8.2726 C.3       1 <0>        -0.1005
     28 C20        -5.4772    7.4821    9.0507 C.2       1 <0>        -0.0295
     29 C21        -5.5659    7.0709   10.3095 C.2       1 <0>        -0.2407
     30 C22        -4.3539    6.7908   11.0870 C.2       1 <0>         0.3882
     31 O4         -4.3456    6.7506   12.2968 O.2       1 <0>        -0.4563
     32 C23        -3.1083    6.5119   10.2626 C.3       1 <0>        -0.1668
     33 C24        -2.9795    7.6529    9.2550 C.3       1 <0>        -0.1074
     34 C25        -4.1736    7.7708    8.3391 C.3       1 <0>        -0.0069
     35 C26        -4.2105    9.2391    7.9116 C.3       1 <0>        -0.1508
     36 O5         -1.7251    7.1773    6.8093 O.3       1 <0>        -0.5570
     37 C27        -4.7946    4.1971    5.7212 C.3       1 <0>        -0.1607
     38 O6         -3.6297    5.7008    2.5360 O.3       1 <0>        -0.5355
     39 H5          0.4632   -3.4903    4.1853 H         1 <0>         0.0638
     40 H6          1.0833   -1.8378    4.4153 H         1 <0>         0.0656
     41 H7         -0.6717   -2.1321    4.3737 H         1 <0>         0.0539
     42 H8          1.2663   -2.5009    2.0448 H         1 <0>         0.0873
     43 H9         -0.4786   -2.8488    1.9957 H         1 <0>         0.0389
     44 H10        -0.2321   -1.1992    0.1016 H         1 <0>         0.0347
     45 H11        -0.0004    0.5144    0.5237 H         1 <0>         0.0783
     46 H12         2.0296   -0.4198   -0.5509 H         1 <0>         0.0605
     47 H13         2.3561    0.0449    1.1361 H         1 <0>         0.0664
     48 H14         2.1244   -1.6687    0.7139 H         1 <0>         0.0554
     49 H15        -2.0361   -0.8372    1.7165 H         1 <0>         0.0805
     50 H16        -1.6309   -0.9112    3.4481 H         1 <0>         0.1211
     51 H17        -2.0639    3.3633    3.7192 H         1 <0>         0.1044
     52 H18        -2.4304    3.4412    1.9792 H         1 <0>         0.1027
     53 H19        -6.0427    5.7791    2.1554 H         1 <0>         0.0819
     54 H20        -6.4819    4.2299    2.9331 H         1 <0>         0.0869
     55 H21        -7.2092    6.7437    3.9251 H         1 <0>         0.0723
     56 H22        -7.0630    5.2877    4.9515 H         1 <0>         0.0796
     57 H23        -2.4441    4.9622    5.8269 H         1 <0>         0.0730
     58 H24        -2.3042    5.9830    4.3808 H         1 <0>         0.0848
     59 H25        -7.5550    6.8645    6.4255 H         1 <0>         0.0779
     60 H26        -6.5949    5.7046    7.3840 H         1 <0>         0.0705
     61 H27        -6.8849    8.6945    7.9493 H         1 <0>         0.0858
     62 H28        -7.6158    7.3660    8.8875 H         1 <0>         0.0785
     63 H29        -6.5405    6.9415   10.7660 H         1 <0>         0.1327
     64 H30        -2.2336    6.4859   10.9102 H         1 <0>         0.0904
     65 H31        -3.2160    5.5634    9.7383 H         1 <0>         0.0958
     66 H32        -2.9307    8.5913    9.8347 H         1 <0>         0.0572
     67 H33        -2.0538    7.5643    8.7221 H         1 <0>         0.1121
     68 H34        -5.1043    9.4215    7.3150 H         1 <0>         0.0617
     69 H35        -4.2286    9.8749    8.7968 H         1 <0>         0.0575
     70 H36        -3.3249    9.4672    7.3184 H         1 <0>         0.0670
     71 H37        -0.9724    7.2730    6.2098 H         1 <0>         0.3793
     72 H38        -4.1097    3.3555    5.6177 H         1 <0>         0.0549
     73 H39        -4.8277    4.5124    6.7641 H         1 <0>         0.0748
     74 H40        -5.7919    3.8954    5.4010 H         1 <0>         0.0726
     75 H41        -3.7059    5.4811    1.5973 H         1 <0>         0.3824
@<TRIPOS>BOND
     1    1    2 1
     2    1   39 1
     3    1   40 1
     4    1   41 1
     5    2    3 1
     6    2   42 1
     7    2   43 1
     8    3    4 1
     9    3    6 1
    10    4    5 1
    11    4   44 1
    12    4   45 1
    13    5   46 1
    14    5   47 1
    15    5   48 1
    16    6    7 1
    17    6   49 1
    18    6   50 1
    19    7    8 2
    20    7    9 1
    21    9   10 1
    22   10   11 1
    23   10   51 1
    24   10   52 1
    25   11   12 2
    26   11   13 1
    27   13   18 1
    28   13   14 1
    29   13   38 1
    30   14   15 1
    31   14   53 1
    32   14   54 1
    33   15   16 1
    34   15   55 1
    35   15   56 1
    36   16   17 1
    37   16   24 1
    38   16   18 1
    39   18   19 1
    40   18   37 1
    41   19   20 1
    42   19   57 1
    43   19   58 1
    44   20   21 1
    45   20   22 1
    46   20   36 1
    47   22   23 1
    48   22   34 1
    49   22   24 1
    50   24   25 1
    51   24   26 1
    52   26   27 1
    53   26   59 1
    54   26   60 1
    55   27   28 1
    56   27   61 1
    57   27   62 1
    58   28   34 1
    59   28   29 2
    60   29   30 1
    61   29   63 1
    62   30   31 2
    63   30   32 1
    64   32   33 1
    65   32   64 1
    66   32   65 1
    67   33   34 1
    68   33   66 1
    69   33   67 1
    70   34   35 1
    71   35   68 1
    72   35   69 1
    73   35   70 1
    74   36   71 1
    75   37   72 1
    76   37   73 1
    77   37   74 1
    78   38   75 1
@<TRIPOS>MOLECULE
ZINC38664625
   75    78     0     0     0
SMALL
USER_CHARGES

@<TRIPOS>ATOM
      1 C1         -3.3872   -1.8613   -0.8720 C.3       1 <0>        -0.1538
      2 C2         -4.5457   -2.2986    0.0267 C.3       1 <0>         0.0485
      3 N1         -5.1020   -1.1255    0.7140 N.3       1 <0>        -0.5256
      4 C3         -6.3662   -1.4584    1.3841 C.3       1 <0>         0.0497
      5 C4         -7.4250   -1.8012    0.3342 C.3       1 <0>        -0.1480
      6 C5         -4.1336   -0.5645    1.6656 C.3       1 <0>         0.0593
      7 C6         -4.5431    0.8392    2.0302 C.2       1 <0>         0.4592
      8 O1         -5.4607    1.3706    1.4509 O.2       1 <0>        -0.4775
      9 O2         -3.8883    1.4993    2.9984 O.3       1 <0>        -0.3399
     10 C7         -4.3299    2.8263    3.2918 C.3       1 <0>         0.0070
     11 C8         -3.4836    3.4046    4.3965 C.2       1 <0>         0.3426
     12 O3         -2.5941    2.7481    4.8824 O.2       1 <0>        -0.4049
     13 C9         -3.7473    4.8022    4.8948 C.3       1 <0>         0.1051
     14 C10        -2.4828    5.3746    5.5670 C.3       1 <0>        -0.1478
     15 C11        -2.8604    5.6622    7.0367 C.3       1 <0>        -0.1191
     16 C12        -4.0536    4.6987    7.3103 C.3       1 <0>        -0.0791
     17 H1         -4.6577    5.0186    8.1593 H         1 <0>         0.0944
     18 C13        -4.8279    4.7805    5.9839 C.3       1 <0>        -0.0313
     19 C14        -5.8110    3.6458    5.8062 C.3       1 <0>        -0.1565
     20 C15        -5.1180    2.2940    5.9664 C.3       1 <0>         0.0584
     21 H2         -4.3296    2.1965    5.2201 H         1 <0>         0.0952
     22 C16        -4.5084    2.2181    7.3723 C.3       1 <0>        -0.0530
     23 H3         -5.2905    2.3536    8.1193 H         1 <0>         0.0777
     24 C17        -3.4476    3.3088    7.5278 C.3       1 <0>        -0.0997
     25 H4         -2.6567    3.1410    6.7967 H         1 <0>         0.1079
     26 C18        -2.8439    3.2611    8.9365 C.3       1 <0>        -0.1104
     27 C19        -2.1056    1.9354    9.1279 C.3       1 <0>        -0.0980
     28 C20        -3.0690    0.7983    8.8406 C.2       1 <0>        -0.0216
     29 C21        -3.1518   -0.1872    9.7337 C.2       1 <0>        -0.2445
     30 C22        -4.0560   -1.3178    9.4962 C.2       1 <0>         0.3886
     31 O4         -4.4534   -2.0193   10.4029 O.2       1 <0>        -0.4618
     32 C23        -4.4672   -1.5636    8.0575 C.3       1 <0>        -0.1685
     33 C24        -4.9410   -0.2293    7.4828 C.3       1 <0>        -0.1000
     34 C25        -3.8677    0.8335    7.5403 C.3       1 <0>        -0.0191
     35 C26        -2.9120    0.6124    6.3661 C.3       1 <0>        -0.1434
     36 O5         -6.0715    1.2433    5.7965 O.3       1 <0>        -0.5458
     37 C27        -5.6031    6.0988    5.9413 C.3       1 <0>        -0.1327
     38 O6         -4.1551    5.6418    3.8128 O.3       1 <0>        -0.5342
     39 H5         -2.9462   -2.7370   -1.3481 H         1 <0>         0.0641
     40 H6         -3.7584   -1.1798   -1.6374 H         1 <0>         0.0658
     41 H7         -2.6318   -1.3556   -0.2706 H         1 <0>         0.0539
     42 H8         -5.3209   -2.7651   -0.5810 H         1 <0>         0.0877
     43 H9         -4.1829   -3.0139    0.7648 H         1 <0>         0.0391
     44 H10        -6.2148   -2.3151    2.0407 H         1 <0>         0.0364
     45 H11        -6.7013   -0.6043    1.9726 H         1 <0>         0.0759
     46 H12        -8.3631   -2.0482    0.8313 H         1 <0>         0.0610
     47 H13        -7.5764   -0.9444   -0.3224 H         1 <0>         0.0663
     48 H14        -7.0899   -2.6553   -0.2544 H         1 <0>         0.0556
     49 H15        -4.1087   -1.1807    2.5644 H         1 <0>         0.0802
     50 H16        -3.1439   -0.5474    1.2092 H         1 <0>         0.1219
     51 H17        -4.2361    3.4459    2.3999 H         1 <0>         0.1044
     52 H18        -5.3726    2.8006    3.6083 H         1 <0>         0.1040
     53 H19        -1.6741    4.6450    5.5247 H         1 <0>         0.0876
     54 H20        -2.1809    6.2972    5.0712 H         1 <0>         0.0840
     55 H21        -2.0247    5.4338    7.6982 H         1 <0>         0.0778
     56 H22        -3.1715    6.7000    7.1558 H         1 <0>         0.0740
     57 H23        -6.5998    3.7348    6.5532 H         1 <0>         0.0875
     58 H24        -6.2523    3.7065    4.8114 H         1 <0>         0.0735
     59 H25        -2.1446    4.0879    9.0606 H         1 <0>         0.0748
     60 H26        -3.6402    3.3439    9.6762 H         1 <0>         0.0659
     61 H27        -1.2624    1.8835    8.4391 H         1 <0>         0.0853
     62 H28        -1.7476    1.8610   10.1547 H         1 <0>         0.0778
     63 H29        -2.5537   -0.1534   10.6323 H         1 <0>         0.1326
     64 H30        -3.6147   -1.9311    7.4862 H         1 <0>         0.0958
     65 H31        -5.2785   -2.2907    8.0231 H         1 <0>         0.0893
     66 H32        -5.2161   -0.3702    6.4375 H         1 <0>         0.1013
     67 H33        -5.8175    0.1054    8.0375 H         1 <0>         0.0654
     68 H34        -2.1215    1.3623    6.3948 H         1 <0>         0.0721
     69 H35        -2.4720   -0.3823    6.4381 H         1 <0>         0.0506
     70 H36        -3.4617    0.6995    5.4289 H         1 <0>         0.0729
     71 H37        -6.5036    1.2404    4.9313 H         1 <0>         0.3669
     72 H38        -6.0905    6.2026    4.9718 H         1 <0>         0.0692
     73 H39        -6.3566    6.1029    6.7289 H         1 <0>         0.0574
     74 H40        -4.9147    6.9302    6.0927 H         1 <0>         0.0630
     75 H41        -3.5050    5.7081    3.0999 H         1 <0>         0.3814
@<TRIPOS>BOND
     1    1    2 1
     2    1   39 1
     3    1   40 1
     4    1   41 1
     5    2    3 1
     6    2   42 1
     7    2   43 1
     8    3    4 1
     9    3    6 1
    10    4    5 1
    11    4   44 1
    12    4   45 1
    13    5   46 1
    14    5   47 1
    15    5   48 1
    16    6    7 1
    17    6   49 1
    18    6   50 1
    19    7    8 2
    20    7    9 1
    21    9   10 1
    22   10   11 1
    23   10   51 1
    24   10   52 1
    25   11   12 2
    26   11   13 1
    27   13   18 1
    28   13   14 1
    29   13   38 1
    30   14   15 1
    31   14   53 1
    32   14   54 1
    33   15   16 1
    34   15   55 1
    35   15   56 1
    36   16   17 1
    37   16   24 1
    38   16   18 1
    39   18   19 1
    40   18   37 1
    41   19   20 1
    42   19   57 1
    43   19   58 1
    44   20   21 1
    45   20   22 1
    46   20   36 1
    47   22   23 1
    48   22   34 1
    49   22   24 1
    50   24   25 1
    51   24   26 1
    52   26   27 1
    53   26   59 1
    54   26   60 1
    55   27   28 1
    56   27   61 1
    57   27   62 1
    58   28   34 1
    59   28   29 2
    60   29   30 1
    61   29   63 1
    62   30   31 2
    63   30   32 1
    64   32   33 1
    65   32   64 1
    66   32   65 1
    67   33   34 1
    68   33   66 1
    69   33   67 1
    70   34   35 1
    71   35   68 1
    72   35   69 1
    73   35   70 1
    74   36   71 1
    75   37   72 1
    76   37   73 1
    77   37   74 1
    78   38   75 1
@<TRIPOS>MOLECULE
ZINC38664626
   75    78     0     0     0
SMALL
USER_CHARGES

@<TRIPOS>ATOM
      1 C1          0.5366   -2.3133    4.2221 C.3       1 <0>        -0.1532
      2 C2          0.5856   -2.1242    2.7047 C.3       1 <0>         0.0482
      3 N1          0.2818   -0.7251    2.3755 N.3       1 <0>        -0.5266
      4 C3          0.6076   -0.4314    0.9736 C.3       1 <0>         0.0485
      5 C4          2.1205   -0.5331    0.7695 C.3       1 <0>        -0.1472
      6 C5         -1.1229   -0.4088    2.6670 C.3       1 <0>         0.0596
      7 C6         -1.2981    1.0866    2.7314 C.2       1 <0>         0.4603
      8 O1         -0.3467    1.8138    2.5709 O.2       1 <0>        -0.4806
      9 O2         -2.5112    1.6106    2.9671 O.3       1 <0>        -0.3419
     10 C7         -2.6041    3.0358    3.0148 C.3       1 <0>         0.0195
     11 C8         -4.0309    3.4373    3.2874 C.2       1 <0>         0.3399
     12 O3         -4.8804    2.5904    3.4265 O.2       1 <0>        -0.4108
     13 C9         -4.3974    4.8957    3.3864 C.3       1 <0>         0.1058
     14 C10        -5.8654    5.1051    2.9624 C.3       1 <0>        -0.1446
     15 C11        -6.5937    5.7025    4.1864 C.3       1 <0>        -0.1216
     16 C12        -5.4542    6.3819    5.0031 C.3       1 <0>        -0.0745
     17 H1         -5.7272    6.5341    6.0473 H         1 <0>         0.0913
     18 C13        -4.3111    5.3651    4.8446 C.3       1 <0>        -0.0294
     19 C14        -2.9578    5.9433    5.1910 C.3       1 <0>        -0.1314
     20 C15        -2.6881    7.2166    4.3914 C.3       1 <0>         0.0923
     21 H2         -2.7115    6.9908    3.3253 H         1 <0>         0.1155
     22 C16        -3.7768    8.2453    4.7237 C.3       1 <0>        -0.0566
     23 H3         -3.7795    8.4437    5.7955 H         1 <0>         0.0730
     24 C17        -5.1403    7.7023    4.2928 C.3       1 <0>        -0.0731
     25 H4         -5.1329    7.5401    3.2150 H         1 <0>         0.0889
     26 C18        -6.2429    8.7100    4.6390 C.3       1 <0>        -0.1151
     27 C19        -6.0330    9.9905    3.8294 C.3       1 <0>        -0.0969
     28 C20        -4.6313   10.5078    4.0964 C.2       1 <0>        -0.0248
     29 C21        -4.4939   11.7937    4.4176 C.2       1 <0>        -0.2433
     30 C22        -3.1592   12.3478    4.6699 C.2       1 <0>         0.3877
     31 O4         -3.0004   13.3619    5.3167 O.2       1 <0>        -0.4619
     32 C23        -1.9886   11.5857    4.0798 C.3       1 <0>        -0.1690
     33 C24        -2.1584   10.1167    4.4651 C.3       1 <0>        -0.1009
     34 C25        -3.4603    9.5382    3.9597 C.3       1 <0>        -0.0169
     35 C26        -3.2837    9.1801    2.4827 C.3       1 <0>        -0.1432
     36 O5         -1.4058    7.7405    4.7424 O.3       1 <0>        -0.5612
     37 C27        -4.5745    4.1731    5.7670 C.3       1 <0>        -0.1588
     38 O6         -3.5291    5.6783    2.5645 O.3       1 <0>        -0.5279
     39 H5          0.7292   -3.3585    4.4644 H         1 <0>         0.0639
     40 H6          1.2946   -1.6860    4.6911 H         1 <0>         0.0656
     41 H7         -0.4489   -2.0303    4.5920 H         1 <0>         0.0538
     42 H8          1.5812   -2.3754    2.3392 H         1 <0>         0.0875
     43 H9         -0.1498   -2.7762    2.2333 H         1 <0>         0.0390
     44 H10         0.1045   -1.1492    0.3256 H         1 <0>         0.0346
     45 H11         0.2746    0.5767    0.7267 H         1 <0>         0.0786
     46 H12         2.3623   -0.3151   -0.2708 H         1 <0>         0.0607
     47 H13         2.6236    0.1847    1.4175 H         1 <0>         0.0664
     48 H14         2.4535   -1.5412    1.0164 H         1 <0>         0.0553
     49 H15        -1.7577   -0.8155    1.8798 H         1 <0>         0.0806
     50 H16        -1.4035   -0.8491    3.6238 H         1 <0>         0.1211
     51 H17        -1.9617    3.4154    3.8093 H         1 <0>         0.1036
     52 H18        -2.2855    3.4528    2.0594 H         1 <0>         0.1034
     53 H19        -5.9167    5.7976    2.1222 H         1 <0>         0.0842
     54 H20        -6.3153    4.1507    2.6888 H         1 <0>         0.0836
     55 H21        -7.3306    6.4408    3.8705 H         1 <0>         0.0778
     56 H22        -7.0668    4.9145    4.7723 H         1 <0>         0.0723
     57 H23        -2.9295    6.1760    6.2555 H         1 <0>         0.0716
     58 H24        -2.1855    5.2080    4.9651 H         1 <0>         0.0628
     59 H25        -7.2157    8.2820    4.3966 H         1 <0>         0.0735
     60 H26        -6.2025    8.9419    5.7032 H         1 <0>         0.0663
     61 H27        -6.1471    9.7747    2.7671 H         1 <0>         0.0835
     62 H28        -6.7637   10.7398    4.1338 H         1 <0>         0.0768
     63 H29        -5.3649   12.4279    4.4919 H         1 <0>         0.1316
     64 H30        -1.9901   11.6866    2.9945 H         1 <0>         0.0958
     65 H31        -1.0533   11.9698    4.4871 H         1 <0>         0.0895
     66 H32        -1.3440    9.5384    4.0287 H         1 <0>         0.1055
     67 H33        -2.1147   10.0266    5.5505 H         1 <0>         0.0654
     68 H34        -4.2034    8.7338    2.1045 H         1 <0>         0.0594
     69 H35        -3.0573   10.0825    1.9146 H         1 <0>         0.0534
     70 H36        -2.4644    8.4690    2.3767 H         1 <0>         0.0724
     71 H37        -0.6723    7.1349    4.5682 H         1 <0>         0.3716
     72 H38        -3.7679    3.4475    5.6624 H         1 <0>         0.0544
     73 H39        -4.6223    4.5169    6.8002 H         1 <0>         0.0710
     74 H40        -5.5211    3.7059    5.4954 H         1 <0>         0.0715
     75 H41        -3.5521    5.4386    1.6280 H         1 <0>         0.3730
@<TRIPOS>BOND
     1    1    2 1
     2    1   39 1
     3    1   40 1
     4    1   41 1
     5    2    3 1
     6    2   42 1
     7    2   43 1
     8    3    4 1
     9    3    6 1
    10    4    5 1
    11    4   44 1
    12    4   45 1
    13    5   46 1
    14    5   47 1
    15    5   48 1
    16    6    7 1
    17    6   49 1
    18    6   50 1
    19    7    8 2
    20    7    9 1
    21    9   10 1
    22   10   11 1
    23   10   51 1
    24   10   52 1
    25   11   12 2
    26   11   13 1
    27   13   18 1
    28   13   14 1
    29   13   38 1
    30   14   15 1
    31   14   53 1
    32   14   54 1
    33   15   16 1
    34   15   55 1
    35   15   56 1
    36   16   17 1
    37   16   24 1
    38   16   18 1
    39   18   19 1
    40   18   37 1
    41   19   20 1
    42   19   57 1
    43   19   58 1
    44   20   21 1
    45   20   22 1
    46   20   36 1
    47   22   23 1
    48   22   34 1
    49   22   24 1
    50   24   25 1
    51   24   26 1
    52   26   27 1
    53   26   59 1
    54   26   60 1
    55   27   28 1
    56   27   61 1
    57   27   62 1
    58   28   34 1
    59   28   29 2
    60   29   30 1
    61   29   63 1
    62   30   31 2
    63   30   32 1
    64   32   33 1
    65   32   64 1
    66   32   65 1
    67   33   34 1
    68   33   66 1
    69   33   67 1
    70   34   35 1
    71   35   68 1
    72   35   69 1
    73   35   70 1
    74   36   71 1
    75   37   72 1
    76   37   73 1
    77   37   74 1
    78   38   75 1
@<TRIPOS>MOLECULE
ZINC03831565
   64    66     0     0     0
SMALL
USER_CHARGES

@<TRIPOS>ATOM
      1 C1          0.1561    1.6029   -0.6866 C.3       1 <0>        -0.1475
      2 C2          0.1566    0.0733   -0.6558 C.3       1 <0>         0.0594
      3 O1         -1.1635   -0.3980   -0.3776 O.3       1 <0>        -0.3597
      4 C3         -1.3355   -1.7277   -0.3157 C.2       1 <0>         0.4166
      5 O2         -0.3963   -2.4672   -0.4920 O.2       1 <0>        -0.4606
      6 C4         -2.6999   -2.2984   -0.0264 C.3       1 <0>         0.0999
      7 H1         -3.3989   -1.9782   -0.7990 H         1 <0>         0.1111
      8 C5         -3.1829   -1.7995    1.3369 C.3       1 <0>        -0.0904
      9 C6         -4.6168   -2.2765    1.5759 C.3       1 <0>        -0.0750
     10 C7         -5.0925   -1.7851    2.9187 C.ar      1 <0>        -0.0735
     11 C8         -4.8881   -2.5549    4.0485 C.ar      1 <0>        -0.1149
     12 C9         -5.3245   -2.1041    5.2803 C.ar      1 <0>        -0.1206
     13 C10        -5.9647   -0.8833    5.3824 C.ar      1 <0>        -0.1311
     14 C11        -6.1683   -0.1130    4.2527 C.ar      1 <0>        -0.1215
     15 C12        -5.7281   -0.5618    3.0216 C.ar      1 <0>        -0.1190
     16 N1         -2.6242   -3.7654   -0.0122 N.3       1 <0>        -0.6338
     17 C13        -2.7525   -4.3123   -1.3696 C.3       1 <0>         0.0575
     18 H2         -2.2741   -3.6379   -2.0798 H         1 <0>         0.0976
     19 C14        -4.2340   -4.4577   -1.7228 C.3       1 <0>        -0.1338
     20 C15        -2.0863   -5.6626   -1.4321 C.2       1 <0>         0.5600
     21 O3         -1.8635   -6.2768   -0.4104 O.2       1 <0>        -0.5534
     22 N2         -1.7381   -6.1877   -2.6236 N.am      1 <0>        -0.5763
     23 C16        -1.1803   -7.5242   -2.8463 C.3       1 <0>         0.1511
     24 H3         -2.0039   -8.2205   -3.0038 H         1 <0>         0.0525
     25 C17        -0.3473   -8.0178   -1.6852 C.3       1 <0>        -0.1278
     26 C18         0.9194   -7.1789   -1.5160 C.3       1 <0>        -0.1085
     27 C19         1.7336   -7.2648   -2.8114 C.3       1 <0>        -0.1091
     28 C20         0.9164   -6.6486   -3.9443 C.3       1 <0>        -0.1402
     29 C21        -0.3695   -7.4239   -4.1515 C.3       1 <0>        -0.0936
     30 H4         -0.1958   -8.3961   -4.6127 H         1 <0>         0.0843
     31 C22        -1.2987   -6.4962   -4.9931 C.3       1 <0>        -0.1103
     32 C23        -1.8572   -5.5211   -3.9328 C.3       1 <0>         0.0507
     33 H5         -2.9038   -5.3009   -4.1432 H         1 <0>         0.0661
     34 C24        -1.0512   -4.2477   -3.9353 C.2       1 <0>         0.4868
     35 O4         -0.3215   -3.9863   -2.9942 O.co2     1 <0>        -0.6507
     36 O5         -1.1288   -3.4790   -4.8785 O.co2     1 <0>        -0.6967
     37 H6          1.1630    1.9624   -0.8988 H         1 <0>         0.0742
     38 H7         -0.5250    1.9505   -1.4634 H         1 <0>         0.0648
     39 H8         -0.1700    1.9857    0.2805 H         1 <0>         0.0616
     40 H9          0.4827   -0.3095   -1.6229 H         1 <0>         0.0704
     41 H10         0.8377   -0.2743    0.1210 H         1 <0>         0.0606
     42 H11        -2.5337   -2.1936    2.1188 H         1 <0>         0.0691
     43 H12        -3.1544   -0.7100    1.3560 H         1 <0>         0.0766
     44 H13        -5.2659   -1.8824    0.7940 H         1 <0>         0.0707
     45 H14        -4.6452   -3.3660    1.5568 H         1 <0>         0.0919
     46 H15        -4.3879   -3.5088    3.9688 H         1 <0>         0.1240
     47 H16        -5.1655   -2.7059    6.1629 H         1 <0>         0.1183
     48 H17        -6.3063   -0.5314    6.3446 H         1 <0>         0.1164
     49 H18        -6.6688    0.8407    4.3324 H         1 <0>         0.1178
     50 H19        -5.8838    0.0416    2.1395 H         1 <0>         0.1211
     51 H20        -4.7141   -5.1261   -1.0080 H         1 <0>         0.0634
     52 H21        -4.7142   -3.4799   -1.6852 H         1 <0>         0.0604
     53 H22        -4.3293   -4.8709   -2.7270 H         1 <0>         0.0584
     54 H23        -0.9387   -7.9599   -0.7714 H         1 <0>         0.0941
     55 H24        -0.0670   -9.0561   -1.8628 H         1 <0>         0.0524
     56 H25         0.6489   -6.1412   -1.3207 H         1 <0>         0.0765
     57 H26         1.5088   -7.5676   -0.6856 H         1 <0>         0.0474
     58 H27         2.6676   -6.7154   -2.6934 H         1 <0>         0.0519
     59 H28         1.9472   -8.3089   -3.0405 H         1 <0>         0.0466
     60 H29         0.6777   -5.6150   -3.6938 H         1 <0>         0.1137
     61 H30         1.5035   -6.6684   -4.8624 H         1 <0>         0.0471
     62 H31        -0.7266   -5.9607   -5.7508 H         1 <0>         0.0820
     63 H32        -2.1059   -7.0689   -5.4495 H         1 <0>         0.0606
     64 H33        -1.7706   -4.0792    0.4248 H         1 <0>         0.3626
@<TRIPOS>BOND
     1    1    2 1
     2    1   37 1
     3    1   38 1
     4    1   39 1
     5    2    3 1
     6    2   40 1
     7    2   41 1
     8    3    4 1
     9    4    5 2
    10    4    6 1
    11    6    7 1
    12    6    8 1
    13    6   16 1
    14    8    9 1
    15    8   42 1
    16    8   43 1
    17    9   10 1
    18    9   44 1
    19    9   45 1
    20   10   15 ar
    21   10   11 ar
    22   11   12 ar
    23   11   46 1
    24   12   13 ar
    25   12   47 1
    26   13   14 ar
    27   13   48 1
    28   14   15 ar
    29   14   49 1
    30   15   50 1
    31   16   17 1
    32   16   64 1
    33   17   18 1
    34   17   19 1
    35   17   20 1
    36   19   51 1
    37   19   52 1
    38   19   53 1
    39   20   21 2
    40   20   22 am
    41   22   32 1
    42   22   23 1
    43   23   24 1
    44   23   29 1
    45   23   25 1
    46   25   26 1
    47   25   54 1
    48   25   55 1
    49   26   27 1
    50   26   56 1
    51   26   57 1
    52   27   28 1
    53   27   58 1
    54   27   59 1
    55   28   29 1
    56   28   60 1
    57   28   61 1
    58   29   30 1
    59   29   31 1
    60   31   32 1
    61   31   62 1
    62   31   63 1
    63   32   33 1
    64   32   34 1
    65   34   35 2
    66   34   36 1
@<TRIPOS>MOLECULE
ZINC03831564
   64    66     0     0     0
SMALL
USER_CHARGES

@<TRIPOS>ATOM
      1 C1          0.7653    0.8146   -0.8735 C.3       1 <0>        -0.1507
      2 C2          0.4911   -0.6879   -0.7822 C.3       1 <0>         0.0608
      3 O1         -0.8903   -0.9029   -0.4863 O.3       1 <0>        -0.3572
      4 C3         -1.2979   -2.1766   -0.3719 C.2       1 <0>         0.4614
      5 O2         -0.5080   -3.0792   -0.5182 O.2       1 <0>        -0.4771
      6 C4         -2.7408   -2.4810   -0.0611 C.3       1 <0>         0.0988
      7 H1         -3.0090   -2.0318    0.8951 H         1 <0>         0.0915
      8 C5         -3.6323   -1.9051   -1.1631 C.3       1 <0>        -0.1051
      9 C6         -5.1018   -2.1043   -0.7864 C.3       1 <0>        -0.0876
     10 C7         -5.9799   -1.5370   -1.8718 C.ar      1 <0>        -0.0704
     11 C8         -6.3794   -0.2148   -1.8173 C.ar      1 <0>        -0.1157
     12 C9         -7.1849    0.3055   -2.8129 C.ar      1 <0>        -0.1207
     13 C10        -7.5906   -0.4963   -3.8634 C.ar      1 <0>        -0.1299
     14 C11        -7.1904   -1.8183   -3.9184 C.ar      1 <0>        -0.1202
     15 C12        -6.3813   -2.3374   -2.9250 C.ar      1 <0>        -0.1151
     16 N1         -2.9297   -3.9360    0.0112 N.3       1 <0>        -0.6457
     17 C13        -2.5998   -4.4438    1.3496 C.3       1 <0>         0.0637
     18 H2         -2.8887   -3.7070    2.0992 H         1 <0>         0.0935
     19 C14        -1.0943   -4.7008    1.4409 C.3       1 <0>        -0.1250
     20 C15        -3.3449   -5.7303    1.5965 C.2       1 <0>         0.5570
     21 O3         -3.7637   -6.3777    0.6604 O.2       1 <0>        -0.5523
     22 N2         -3.5458   -6.1613    2.8576 N.am      1 <0>        -0.5773
     23 C16        -4.1536   -7.4368    3.2457 C.3       1 <0>         0.1500
     24 H3         -3.3650   -8.1849    3.3269 H         1 <0>         0.0534
     25 C17        -5.1826   -7.9274    2.2527 C.3       1 <0>        -0.1287
     26 C18        -6.4003   -7.0040    2.2150 C.3       1 <0>        -0.1079
     27 C19        -7.0154   -6.9563    3.6178 C.3       1 <0>        -0.1105
     28 C20        -5.9978   -6.3440    4.5772 C.3       1 <0>        -0.1376
     29 C21        -4.7511   -7.2035    4.6455 C.3       1 <0>        -0.0941
     30 H4         -4.9195   -8.1329    5.1894 H         1 <0>         0.0856
     31 C22        -3.6455   -6.3056    5.2808 C.3       1 <0>        -0.1107
     32 C23        -3.1869   -5.4355    4.0893 C.3       1 <0>         0.0511
     33 H5         -2.1080   -5.2854    4.1305 H         1 <0>         0.0684
     34 C24        -3.8949   -4.1057    4.1259 C.2       1 <0>         0.4945
     35 O4         -4.7101   -3.8252    3.2637 O.co2     1 <0>        -0.6724
     36 O5         -3.6526   -3.3104    5.0176 O.co2     1 <0>        -0.6894
     37 H6          1.8190    0.9786   -1.0992 H         1 <0>         0.0753
     38 H7          0.1527    1.2483   -1.6639 H         1 <0>         0.0649
     39 H8          0.5196    1.2873    0.0774 H         1 <0>         0.0664
     40 H9          0.7369   -1.1605   -1.7331 H         1 <0>         0.0640
     41 H10         1.1038   -1.1216    0.0082 H         1 <0>         0.0644
     42 H11        -3.4275   -0.8406   -1.2770 H         1 <0>         0.0836
     43 H12        -3.4254   -2.4175   -2.1027 H         1 <0>         0.0774
     44 H13        -5.3066   -3.1688   -0.6725 H         1 <0>         0.0788
     45 H14        -5.3086   -1.5919    0.1532 H         1 <0>         0.0834
     46 H15        -6.0625    0.4117   -0.9966 H         1 <0>         0.1227
     47 H16        -7.4976    1.3384   -2.7699 H         1 <0>         0.1189
     48 H17        -8.2205   -0.0900   -4.6409 H         1 <0>         0.1170
     49 H18        -7.5076   -2.4448   -4.7389 H         1 <0>         0.1190
     50 H19        -6.0656   -3.3693   -2.9699 H         1 <0>         0.1233
     51 H20        -0.7817   -5.3289    0.6067 H         1 <0>         0.0677
     52 H21        -0.5606   -3.7512    1.4007 H         1 <0>         0.0602
     53 H22        -0.8681   -5.2053    2.3802 H         1 <0>         0.0471
     54 H23        -4.7321   -7.9650    1.2608 H         1 <0>         0.0948
     55 H24        -5.5032   -8.9298    2.5364 H         1 <0>         0.0536
     56 H25        -6.0921   -6.0023    1.9151 H         1 <0>         0.0735
     57 H26        -7.1324   -7.3908    1.5062 H         1 <0>         0.0489
     58 H27        -7.9169   -6.3439    3.6011 H         1 <0>         0.0529
     59 H28        -7.2628   -7.9668    3.9431 H         1 <0>         0.0481
     60 H29        -5.7294   -5.3470    4.2278 H         1 <0>         0.1096
     61 H30        -6.4408   -6.2685    5.5703 H         1 <0>         0.0488
     62 H31        -4.0599   -5.6872    6.0770 H         1 <0>         0.0836
     63 H32        -2.8199   -6.9130    5.6515 H         1 <0>         0.0617
     64 H33        -3.8697   -4.1921   -0.2511 H         1 <0>         0.3622
@<TRIPOS>BOND
     1    1    2 1
     2    1   37 1
     3    1   38 1
     4    1   39 1
     5    2    3 1
     6    2   40 1
     7    2   41 1
     8    3    4 1
     9    4    5 2
    10    4    6 1
    11    6    7 1
    12    6    8 1
    13    6   16 1
    14    8    9 1
    15    8   42 1
    16    8   43 1
    17    9   10 1
    18    9   44 1
    19    9   45 1
    20   10   15 ar
    21   10   11 ar
    22   11   12 ar
    23   11   46 1
    24   12   13 ar
    25   12   47 1
    26   13   14 ar
    27   13   48 1
    28   14   15 ar
    29   14   49 1
    30   15   50 1
    31   16   17 1
    32   16   64 1
    33   17   18 1
    34   17   19 1
    35   17   20 1
    36   19   51 1
    37   19   52 1
    38   19   53 1
    39   20   21 2
    40   20   22 am
    41   22   32 1
    42   22   23 1
    43   23   24 1
    44   23   29 1
    45   23   25 1
    46   25   26 1
    47   25   54 1
    48   25   55 1
    49   26   27 1
    50   26   56 1
    51   26   57 1
    52   27   28 1
    53   27   58 1
    54   27   59 1
    55   28   29 1
    56   28   60 1
    57   28   61 1
    58   29   30 1
    59   29   31 1
    60   31   32 1
    61   31   62 1
    62   31   63 1
    63   32   33 1
    64   32   34 1
    65   34   35 2
    66   34   36 1
@<TRIPOS>MOLECULE
ZINC03831563
   64    66     0     0     0
SMALL
USER_CHARGES

@<TRIPOS>ATOM
      1 C1          0.0691    1.2891    0.2251 C.3       1 <0>        -0.1514
      2 C2         -0.0270   -0.2375    0.2597 C.3       1 <0>         0.0576
      3 O1         -1.3740   -0.6360   -0.0028 O.3       1 <0>        -0.3508
      4 C3         -1.6296   -1.9537   -0.0083 C.2       1 <0>         0.4300
      5 O2         -0.7392   -2.7427    0.2026 O.2       1 <0>        -0.5005
      6 C4         -3.0272   -2.4490   -0.2777 C.3       1 <0>         0.0992
      7 H1         -3.3473   -2.1145   -1.2645 H         1 <0>         0.1172
      8 C5         -3.9789   -1.8924    0.7831 C.3       1 <0>        -0.0901
      9 C6         -5.4153   -2.2921    0.4398 C.3       1 <0>        -0.0794
     10 C7         -6.3526   -1.7439    1.4847 C.ar      1 <0>        -0.0720
     11 C8         -6.6518   -2.4939    2.6067 C.ar      1 <0>        -0.1125
     12 C9         -7.5116   -1.9910    3.5652 C.ar      1 <0>        -0.1200
     13 C10        -8.0720   -0.7379    3.4019 C.ar      1 <0>        -0.1310
     14 C11        -7.7721    0.0125    2.2803 C.ar      1 <0>        -0.1228
     15 C12        -6.9089   -0.4886    1.3239 C.ar      1 <0>        -0.1196
     16 N1         -3.0442   -3.9171   -0.2289 N.3       1 <0>        -0.6280
     17 C13        -2.6586   -4.4914   -1.5249 C.3       1 <0>         0.0492
     18 H2         -3.0328   -3.8576   -2.3289 H         1 <0>         0.1221
     19 C14        -1.1335   -4.5774   -1.6110 C.3       1 <0>        -0.1799
     20 C15        -3.2480   -5.8720   -1.6578 C.2       1 <0>         0.5479
     21 O3         -3.8154   -6.3825   -0.7153 O.2       1 <0>        -0.5109
     22 N2         -3.1444   -6.5394   -2.8241 N.am      1 <0>        -0.5838
     23 C16        -2.4102   -6.0923   -4.0106 C.3       1 <0>         0.1420
     24 H3         -1.3850   -6.4559   -3.9400 H         1 <0>         0.0558
     25 C17        -2.3788   -4.5875   -4.1538 C.3       1 <0>        -0.1671
     26 C18        -3.7751   -4.0278   -4.4257 C.3       1 <0>        -0.1247
     27 C19        -4.3073   -4.6602   -5.7162 C.3       1 <0>        -0.1060
     28 C20        -4.4440   -6.1657   -5.5026 C.3       1 <0>        -0.1394
     29 C21        -3.0919   -6.7830   -5.2061 C.3       1 <0>        -0.0916
     30 H4         -2.4528   -6.8210   -6.0882 H         1 <0>         0.0848
     31 C22        -3.3863   -8.1867   -4.5935 C.3       1 <0>        -0.1113
     32 C23        -3.7446   -7.8508   -3.1287 C.3       1 <0>         0.0665
     33 H5         -3.3361   -8.6098   -2.4614 H         1 <0>         0.0635
     34 C24        -5.2418   -7.7784   -2.9730 C.2       1 <0>         0.5001
     35 O4         -5.7753   -6.7174   -2.6970 O.co2     1 <0>        -0.6667
     36 O5         -5.9195   -8.7807   -3.1232 O.co2     1 <0>        -0.7042
     37 H6          1.0966    1.5930    0.4252 H         1 <0>         0.0766
     38 H7         -0.2314    1.6499   -0.7586 H         1 <0>         0.0663
     39 H8         -0.5892    1.7119    0.9839 H         1 <0>         0.0664
     40 H9          0.6313   -0.6603   -0.4992 H         1 <0>         0.0649
     41 H10         0.2735   -0.5983    1.2433 H         1 <0>         0.0653
     42 H11        -3.7123   -2.2980    1.7591 H         1 <0>         0.0702
     43 H12        -3.9001   -0.8055    0.8075 H         1 <0>         0.0770
     44 H13        -5.6819   -1.8865   -0.5362 H         1 <0>         0.0719
     45 H14        -5.4940   -3.3790    0.4154 H         1 <0>         0.0997
     46 H15        -6.2140   -3.4729    2.7343 H         1 <0>         0.1252
     47 H16        -7.7459   -2.5772    4.4414 H         1 <0>         0.1187
     48 H17        -8.7443   -0.3453    4.1503 H         1 <0>         0.1162
     49 H18        -8.2102    0.9914    2.1525 H         1 <0>         0.1172
     50 H19        -6.6717    0.0992    0.4495 H         1 <0>         0.1200
     51 H20        -0.7472   -5.0790   -0.7237 H         1 <0>         0.0670
     52 H21        -0.8511   -5.1421   -2.4996 H         1 <0>         0.0697
     53 H22        -0.7157   -3.5725   -1.6712 H         1 <0>         0.0650
     54 H23        -1.9913   -4.1493   -3.2341 H         1 <0>         0.0960
     55 H24        -1.7201   -4.3211   -4.9803 H         1 <0>         0.0683
     56 H25        -4.4374   -4.2745   -3.5959 H         1 <0>         0.0809
     57 H26        -3.7202   -2.9455   -4.5429 H         1 <0>         0.0545
     58 H27        -5.2817   -4.2350   -5.9570 H         1 <0>         0.0566
     59 H28        -3.6103   -4.4683   -6.5320 H         1 <0>         0.0503
     60 H29        -5.1159   -6.3499   -4.6643 H         1 <0>         0.1107
     61 H30        -4.8603   -6.6196   -6.4019 H         1 <0>         0.0518
     62 H31        -4.2266   -8.6612   -5.1004 H         1 <0>         0.0839
     63 H32        -2.5004   -8.8203   -4.6354 H         1 <0>         0.0590
     64 H33        -2.4500   -4.2613    0.5103 H         1 <0>         0.3583
@<TRIPOS>BOND
     1    1    2 1
     2    1   37 1
     3    1   38 1
     4    1   39 1
     5    2    3 1
     6    2   40 1
     7    2   41 1
     8    3    4 1
     9    4    5 2
    10    4    6 1
    11    6    7 1
    12    6    8 1
    13    6   16 1
    14    8    9 1
    15    8   42 1
    16    8   43 1
    17    9   10 1
    18    9   44 1
    19    9   45 1
    20   10   15 ar
    21   10   11 ar
    22   11   12 ar
    23   11   46 1
    24   12   13 ar
    25   12   47 1
    26   13   14 ar
    27   13   48 1
    28   14   15 ar
    29   14   49 1
    30   15   50 1
    31   16   17 1
    32   16   64 1
    33   17   18 1
    34   17   19 1
    35   17   20 1
    36   19   51 1
    37   19   52 1
    38   19   53 1
    39   20   21 2
    40   20   22 am
    41   22   32 1
    42   22   23 1
    43   23   24 1
    44   23   29 1
    45   23   25 1
    46   25   26 1
    47   25   54 1
    48   25   55 1
    49   26   27 1
    50   26   56 1
    51   26   57 1
    52   27   28 1
    53   27   58 1
    54   27   59 1
    55   28   29 1
    56   28   60 1
    57   28   61 1
    58   29   30 1
    59   29   31 1
    60   31   32 1
    61   31   62 1
    62   31   63 1
    63   32   33 1
    64   32   34 1
    65   34   35 2
    66   34   36 1
@<TRIPOS>MOLECULE
ZINC03831562
   64    66     0     0     0
SMALL
USER_CHARGES

@<TRIPOS>ATOM
      1 C1         -0.0384    1.6287    1.2486 C.3       1 <0>        -0.1486
      2 C2          0.0526    0.1087    1.0998 C.3       1 <0>         0.0595
      3 O1         -1.2426   -0.4198    0.8080 O.3       1 <0>        -0.3624
      4 C3         -1.3361   -1.7491    0.6466 C.2       1 <0>         0.4442
      5 O2         -0.3510   -2.4410    0.7496 O.2       1 <0>        -0.4512
      6 C4         -2.6699   -2.3785    0.3369 C.3       1 <0>         0.1063
      7 H1         -3.3703   -2.1612    1.1434 H         1 <0>         0.0807
      8 C5         -3.2107   -1.8077   -0.9757 C.3       1 <0>        -0.1114
      9 C6         -4.6184   -2.3520   -1.2269 C.3       1 <0>        -0.0846
     10 C7         -5.1510   -1.7899   -2.5197 C.ar      1 <0>        -0.0777
     11 C8         -5.8557   -0.6006   -2.5179 C.ar      1 <0>        -0.1166
     12 C9         -6.3443   -0.0850   -3.7038 C.ar      1 <0>        -0.1207
     13 C10        -6.1278   -0.7583   -4.8915 C.ar      1 <0>        -0.1265
     14 C11        -5.4223   -1.9471   -4.8934 C.ar      1 <0>        -0.1181
     15 C12        -4.9300   -2.4606   -3.7080 C.ar      1 <0>        -0.1140
     16 N1         -2.5071   -3.8327    0.2082 N.3       1 <0>        -0.6444
     17 C13        -2.5737   -4.4881    1.5212 C.3       1 <0>         0.0555
     18 H2         -2.1214   -3.8417    2.2733 H         1 <0>         0.1227
     19 C14        -4.0360   -4.7503    1.8868 C.3       1 <0>        -0.1930
     20 C15        -1.8269   -5.7960    1.4683 C.2       1 <0>         0.5492
     21 O3         -1.4028   -6.2097    0.4100 O.2       1 <0>        -0.5078
     22 N2         -1.6302   -6.5059    2.5969 N.am      1 <0>        -0.5853
     23 C16        -2.1609   -6.1801    3.9233 C.3       1 <0>         0.1419
     24 H3         -3.1364   -6.6542    4.0312 H         1 <0>         0.0559
     25 C17        -2.3202   -4.6934    4.1471 C.3       1 <0>        -0.1657
     26 C18        -0.9638   -3.9890    4.1757 C.3       1 <0>        -0.1251
     27 C19        -0.1266   -4.5965    5.3064 C.3       1 <0>        -0.1050
     28 C20         0.1219   -6.0700    4.9934 C.3       1 <0>        -0.1398
     29 C21        -1.1904   -6.8259    4.9293 C.3       1 <0>        -0.0914
     30 H4         -1.6371   -6.9621    5.9141 H         1 <0>         0.0849
     31 C22        -0.8767   -8.1685    4.2003 C.3       1 <0>        -0.1108
     32 C23        -0.8488   -7.7503    2.7132 C.3       1 <0>         0.0665
     33 H5         -1.2985   -8.5297    2.0981 H         1 <0>         0.0631
     34 C24         0.5732   -7.5056    2.2784 C.2       1 <0>         0.4973
     35 O4          0.9289   -6.3836    1.9602 O.co2     1 <0>        -0.6611
     36 O5          1.3680   -8.4295    2.2448 O.co2     1 <0>        -0.7068
     37 H6          0.9495    2.0318    1.4712 H         1 <0>         0.0763
     38 H7         -0.4073    2.0633    0.3195 H         1 <0>         0.0641
     39 H8         -0.7224    1.8739    2.0611 H         1 <0>         0.0641
     40 H9          0.7366   -0.1365    0.2873 H         1 <0>         0.0661
     41 H10         0.4215   -0.3259    2.0289 H         1 <0>         0.0663
     42 H11        -3.2478   -0.7203   -0.9111 H         1 <0>         0.0867
     43 H12        -2.5560   -2.1009   -1.7964 H         1 <0>         0.0832
     44 H13        -4.5813   -3.4395   -1.2915 H         1 <0>         0.0770
     45 H14        -5.2731   -2.0589   -0.4062 H         1 <0>         0.0767
     46 H15        -6.0249   -0.0746   -1.5900 H         1 <0>         0.1214
     47 H16        -6.8954    0.8438   -3.7023 H         1 <0>         0.1196
     48 H17        -6.5101   -0.3558   -5.8179 H         1 <0>         0.1187
     49 H18        -5.2534   -2.4734   -5.8212 H         1 <0>         0.1211
     50 H19        -4.3756   -3.3874   -3.7100 H         1 <0>         0.1249
     51 H20        -4.5219   -5.2921    1.0754 H         1 <0>         0.0654
     52 H21        -4.0815   -5.3450    2.7992 H         1 <0>         0.0809
     53 H22        -4.5465   -3.8005    2.0464 H         1 <0>         0.0638
     54 H23        -2.9236   -4.2738    3.3421 H         1 <0>         0.0940
     55 H24        -2.8288   -4.5278    5.0968 H         1 <0>         0.0684
     56 H25        -0.4545   -4.1345    3.2231 H         1 <0>         0.0848
     57 H26        -1.1072   -2.9238    4.3568 H         1 <0>         0.0500
     58 H27         0.8263   -4.0721    5.3782 H         1 <0>         0.0554
     59 H28        -0.6668   -4.5089    6.2491 H         1 <0>         0.0499
     60 H29         0.6323   -6.1521    4.0339 H         1 <0>         0.1109
     61 H30         0.7509   -6.5014    5.7721 H         1 <0>         0.0517
     62 H31         0.0912   -8.5608    4.5122 H         1 <0>         0.0836
     63 H32        -1.6664   -8.8985    4.3780 H         1 <0>         0.0589
     64 H33        -3.1923   -4.2188   -0.4238 H         1 <0>         0.3563
@<TRIPOS>BOND
     1    1    2 1
     2    1   37 1
     3    1   38 1
     4    1   39 1
     5    2    3 1
     6    2   40 1
     7    2   41 1
     8    3    4 1
     9    4    5 2
    10    4    6 1
    11    6    7 1
    12    6    8 1
    13    6   16 1
    14    8    9 1
    15    8   42 1
    16    8   43 1
    17    9   10 1
    18    9   44 1
    19    9   45 1
    20   10   15 ar
    21   10   11 ar
    22   11   12 ar
    23   11   46 1
    24   12   13 ar
    25   12   47 1
    26   13   14 ar
    27   13   48 1
    28   14   15 ar
    29   14   49 1
    30   15   50 1
    31   16   17 1
    32   16   64 1
    33   17   18 1
    34   17   19 1
    35   17   20 1
    36   19   51 1
    37   19   52 1
    38   19   53 1
    39   20   21 2
    40   20   22 am
    41   22   32 1
    42   22   23 1
    43   23   24 1
    44   23   29 1
    45   23   25 1
    46   25   26 1
    47   25   54 1
    48   25   55 1
    49   26   27 1
    50   26   56 1
    51   26   57 1
    52   27   28 1
    53   27   58 1
    54   27   59 1
    55   28   29 1
    56   28   60 1
    57   28   61 1
    58   29   30 1
    59   29   31 1
    60   31   32 1
    61   31   62 1
    62   31   63 1
    63   32   33 1
    64   32   34 1
    65   34   35 2
    66   34   36 1
@<TRIPOS>MOLECULE
ZINC03831402
   61    63     0     0     0
SMALL
USER_CHARGES

@<TRIPOS>ATOM
      1 C1          3.2026    1.9616   -5.5463 C.3       1 <0>        -0.1505
      2 C2          2.9103    0.6462   -4.8215 C.3       1 <0>         0.0606
      3 O1          2.8423   -0.4173   -5.7735 O.3       1 <0>        -0.3593
      4 C3          2.5910   -1.6467   -5.2968 C.2       1 <0>         0.4558
      5 O2          2.4340   -1.8143   -4.1105 O.2       1 <0>        -0.4679
      6 C4          2.5048   -2.8180   -6.2411 C.3       1 <0>         0.1027
      7 H1          1.7046   -2.6461   -6.9610 H         1 <0>         0.0821
      8 C5          3.8337   -2.9737   -6.9832 C.3       1 <0>        -0.1101
      9 C6          3.7064   -4.0822   -8.0300 C.3       1 <0>        -0.0881
     10 C7          5.0153   -4.2357   -8.7609 C.ar      1 <0>        -0.0765
     11 C8          5.2602   -3.4960   -9.9028 C.ar      1 <0>        -0.1171
     12 C9          6.4608   -3.6367  -10.5732 C.ar      1 <0>        -0.1220
     13 C10         7.4168   -4.5168  -10.1015 C.ar      1 <0>        -0.1269
     14 C11         7.1723   -5.2558   -8.9592 C.ar      1 <0>        -0.1176
     15 C12         5.9734   -5.1119   -8.2863 C.ar      1 <0>        -0.1122
     16 N1          2.2232   -4.0418   -5.4789 N.3       1 <0>        -0.6486
     17 C13         0.7806   -4.1999   -5.2512 C.3       1 <0>         0.0703
     18 H2          0.2330   -3.8256   -6.1162 H         1 <0>         0.0554
     19 C14         0.3709   -3.4093   -4.0070 C.3       1 <0>        -0.1240
     20 C15         0.4611   -5.6585   -5.0473 C.2       1 <0>         0.4855
     21 O3          1.3321   -6.4270   -4.6985 O.2       1 <0>        -0.4327
     22 N2         -0.7925   -6.1089   -5.2525 N.am      1 <0>        -0.6022
     23 C16        -1.8434   -5.2286   -5.7741 C.3       1 <0>         0.1482
     24 C17        -3.1141   -5.4338   -4.9884 C.ar      1 <0>        -0.0959
     25 C18        -4.1444   -4.5217   -5.1733 C.ar      1 <0>        -0.1153
     26 C19        -5.3350   -4.6621   -4.4905 C.ar      1 <0>        -0.1319
     27 C20        -5.5032   -5.7202   -3.6166 C.ar      1 <0>        -0.1211
     28 C21        -4.4791   -6.6245   -3.4291 C.ar      1 <0>        -0.1233
     29 C22        -3.2765   -6.4821   -4.1110 C.ar      1 <0>        -0.0497
     30 C23        -2.1939   -7.4922   -3.8354 C.3       1 <0>        -0.0836
     31 C24        -1.1603   -7.5058   -4.9677 C.3       1 <0>         0.0781
     32 H3         -1.5916   -7.9624   -5.8585 H         1 <0>         0.0643
     33 C25         0.0611   -8.2773   -4.5387 C.2       1 <0>         0.5108
     34 O4          0.6886   -7.9269   -3.5538 O.co2     1 <0>        -0.6511
     35 O5          0.4218   -9.2517   -5.1765 O.co2     1 <0>        -0.7037
     36 H4          4.1543    1.8830   -6.0720 H         1 <0>         0.0654
     37 H5          2.4074    2.1659   -6.2632 H         1 <0>         0.0649
     38 H6          3.2545    2.7728   -4.8202 H         1 <0>         0.0765
     39 H7          3.7055    0.4419   -4.1046 H         1 <0>         0.0658
     40 H8          1.9586    0.7248   -4.2959 H         1 <0>         0.0647
     41 H9          4.0865   -2.0353   -7.4766 H         1 <0>         0.0859
     42 H10         4.6184   -3.2334   -6.2726 H         1 <0>         0.0827
     43 H11         3.4536   -5.0207   -7.5365 H         1 <0>         0.0805
     44 H12         2.9217   -3.8225   -8.7406 H         1 <0>         0.0766
     45 H13         4.5133   -2.8085  -10.2713 H         1 <0>         0.1206
     46 H14         6.6518   -3.0594  -11.4657 H         1 <0>         0.1190
     47 H15         8.3546   -4.6273  -10.6257 H         1 <0>         0.1184
     48 H16         7.9191   -5.9436   -8.5908 H         1 <0>         0.1215
     49 H17         5.7839   -5.6865   -7.3917 H         1 <0>         0.1267
     50 H18         1.0276   -3.6714   -3.1775 H         1 <0>         0.0769
     51 H19         0.4525   -2.3418   -4.2117 H         1 <0>         0.0565
     52 H20        -0.6592   -3.6514   -3.7455 H         1 <0>         0.0513
     53 H21        -1.5247   -4.1901   -5.6837 H         1 <0>         0.0867
     54 H22        -2.0241   -5.4618   -6.8235 H         1 <0>         0.0711
     55 H23        -4.0127   -3.6958   -5.8567 H         1 <0>         0.1191
     56 H24        -6.1322   -3.9487   -4.6383 H         1 <0>         0.1181
     57 H25        -6.4344   -5.8383   -3.0824 H         1 <0>         0.1178
     58 H26        -4.6126   -7.4504   -2.7461 H         1 <0>         0.1202
     59 H27        -1.6984   -7.2398   -2.8979 H         1 <0>         0.0887
     60 H28        -2.6412   -8.4824   -3.7484 H         1 <0>         0.0759
     61 H29         2.6072   -4.8522   -5.9414 H         1 <0>         0.3659
@<TRIPOS>BOND
     1    1    2 1
     2    1   36 1
     3    1   37 1
     4    1   38 1
     5    2    3 1
     6    2   39 1
     7    2   40 1
     8    3    4 1
     9    4    5 2
    10    4    6 1
    11    6    7 1
    12    6    8 1
    13    6   16 1
    14    8    9 1
    15    8   41 1
    16    8   42 1
    17    9   10 1
    18    9   43 1
    19    9   44 1
    20   10   15 ar
    21   10   11 ar
    22   11   12 ar
    23   11   45 1
    24   12   13 ar
    25   12   46 1
    26   13   14 ar
    27   13   47 1
    28   14   15 ar
    29   14   48 1
    30   15   49 1
    31   16   17 1
    32   16   61 1
    33   17   18 1
    34   17   19 1
    35   17   20 1
    36   19   50 1
    37   19   51 1
    38   19   52 1
    39   20   21 2
    40   20   22 am
    41   22   31 1
    42   22   23 1
    43   23   24 1
    44   23   53 1
    45   23   54 1
    46   24   29 ar
    47   24   25 ar
    48   25   26 ar
    49   25   55 1
    50   26   27 ar
    51   26   56 1
    52   27   28 ar
    53   27   57 1
    54   28   29 ar
    55   28   58 1
    56   29   30 1
    57   30   31 1
    58   30   59 1
    59   30   60 1
    60   31   32 1
    61   31   33 1
    62   33   34 2
    63   33   35 1
@<TRIPOS>MOLECULE
ZINC03831068
   50    53     0     0     0
SMALL
USER_CHARGES

@<TRIPOS>ATOM
      1 C1         -0.0187    1.5258    0.0104 C.3       1 <0>        -0.1465
      2 C2          0.0021   -0.0041    0.0020 C.3       1 <0>        -0.1285
      3 C3         -1.4333   -0.5336    0.0129 C.3       1 <0>         0.1465
      4 H1         -1.9701   -0.1109    0.8621 H         1 <0>         0.0997
      5 C4         -1.4133   -2.0590    0.1302 C.3       1 <0>         0.0662
      6 O1         -0.6117   -2.6069   -0.9183 O.3       1 <0>        -0.5698
      7 N1         -2.1054   -0.1483   -1.2305 N.am      1 <0>        -0.7193
      8 C5         -2.6898    1.0618   -1.3336 C.2       1 <0>         0.5261
      9 O2         -2.6594    1.8317   -0.3970 O.2       1 <0>        -0.5309
     10 C6         -3.3812    1.4581   -2.6126 C.3       1 <0>        -0.0715
     11 H2         -4.1900    0.7589   -2.8246 H         1 <0>         0.1188
     12 C7         -3.9473    2.8761   -2.4756 C.3       1 <0>         0.0823
     13 N2         -4.5249    3.2714   -3.7636 N.3       1 <0>        -0.5496
     14 C8         -3.5307    3.3803   -4.8235 C.3       1 <0>         0.1381
     15 H3         -3.0275    4.3379   -4.6894 H         1 <0>         0.0449
     16 C9         -4.2339    3.4314   -6.1869 C.3       1 <0>        -0.0236
     17 C10        -3.2003    3.4232   -7.2827 C.2       1 <0>        -0.1683
     18 C11        -3.1596    3.8461   -8.5417 C.2       1 <0>         0.0570
     19 N3         -1.9242    3.5642   -9.1042 N.pl3     1 <0>        -0.5953
     20 H4         -1.6679    3.7815  -10.0142 H         1 <0>         0.4162
     21 C12        -1.1210    2.9393   -8.1987 C.ar      1 <0>         0.1104
     22 C13        -1.8882    2.8369   -7.0350 C.ar      1 <0>        -0.1312
     23 C14        -1.4596    2.2682   -5.8174 C.ar      1 <0>        -0.0045
     24 C15        -0.1788    1.7647   -5.8141 C.ar      1 <0>        -0.1274
     25 C16         0.5994    1.8490   -6.9666 C.ar      1 <0>        -0.0964
     26 C17         0.1729    2.4213   -8.1595 C.ar      1 <0>        -0.1216
     27 C18        -2.4730    2.3114   -4.7465 C.2       1 <0>        -0.0537
     28 C19        -2.3924    1.4486   -3.7473 C.2       1 <0>        -0.1352
     29 C20        -5.2959    4.5152   -3.6353 C.3       1 <0>         0.0279
     30 H5          1.0039    1.9031    0.0027 H         1 <0>         0.0455
     31 H6         -0.5459    1.8868   -0.8726 H         1 <0>         0.0555
     32 H7         -0.5289    1.8773    0.9072 H         1 <0>         0.0580
     33 H8          0.5123   -0.3556   -0.8948 H         1 <0>         0.0716
     34 H9          0.5293   -0.3651    0.8851 H         1 <0>         0.0675
     35 H10        -0.9936   -2.3437    1.0951 H         1 <0>         0.0621
     36 H11        -2.4301   -2.4431    0.0488 H         1 <0>         0.0535
     37 H12        -0.5540   -3.5721   -0.9058 H         1 <0>         0.3833
     38 H13        -2.1298   -0.7641   -1.9796 H         1 <0>         0.4053
     39 H14        -4.7208    2.8892   -1.7077 H         1 <0>         0.0894
     40 H15        -3.1472    3.5655   -2.2058 H         1 <0>         0.0475
     41 H16        -4.8839    2.5630   -6.2936 H         1 <0>         0.0842
     42 H17        -4.8290    4.3421   -6.2552 H         1 <0>         0.0763
     43 H18        -3.9729    4.3387   -9.0539 H         1 <0>         0.1695
     44 H19         0.2214    1.3064   -4.9218 H         1 <0>         0.1230
     45 H20         1.5998    1.4435   -6.9308 H         1 <0>         0.1224
     46 H21         0.8194    2.4629   -9.0236 H         1 <0>         0.1283
     47 H22        -1.6029    0.7118   -3.7508 H         1 <0>         0.1202
     48 H23        -4.6280    5.3293   -3.3537 H         1 <0>         0.0285
     49 H24        -5.7710    4.7482   -4.5883 H         1 <0>         0.0736
     50 H25        -6.0608    4.3911   -2.8687 H         1 <0>         0.0738
@<TRIPOS>BOND
     1    1    2 1
     2    1   30 1
     3    1   31 1
     4    1   32 1
     5    2    3 1
     6    2   33 1
     7    2   34 1
     8    3    4 1
     9    3    5 1
    10    3    7 1
    11    5    6 1
    12    5   35 1
    13    5   36 1
    14    6   37 1
    15    7    8 am
    16    7   38 1
    17    8    9 2
    18    8   10 1
    19   10   11 1
    20   10   28 1
    21   10   12 1
    22   12   13 1
    23   12   39 1
    24   12   40 1
    25   13   14 1
    26   13   29 1
    27   14   15 1
    28   14   27 1
    29   14   16 1
    30   16   17 1
    31   16   41 1
    32   16   42 1
    33   17   22 1
    34   17   18 2
    35   18   19 1
    36   18   43 1
    37   19   20 1
    38   19   21 1
    39   21   26 ar
    40   21   22 ar
    41   22   23 ar
    42   23   24 ar
    43   23   27 1
    44   24   25 ar
    45   24   44 1
    46   25   26 ar
    47   25   45 1
    48   26   46 1
    49   27   28 2
    50   28   47 1
    51   29   48 1
    52   29   49 1
    53   29   50 1
@<TRIPOS>MOLECULE
ZINC03830942
   17    18     0     0     0
SMALL
USER_CHARGES

@<TRIPOS>ATOM
      1 C1         -0.0168    1.3886    0.0097 C.ar      1 <0>        -0.1493
      2 C2          1.1578    2.0863    0.0022 C.ar      1 <0>        -0.1181
      3 C3          2.3621    1.3587   -0.0132 C.ar      1 <0>        -0.0031
      4 C4          3.6085    2.0073   -0.0210 C.ar      1 <0>        -0.2376
      5 C5          4.7535    1.2697   -0.0355 C.ar      1 <0>         0.0473
      6 C6          4.7083   -0.1224   -0.0427 C.ar      1 <0>        -0.2842
      7 C7          3.5152   -0.7877   -0.0354 C.ar      1 <0>         0.3382
      8 C8          2.3089   -0.0570   -0.0203 C.ar      1 <0>         0.0543
      9 N1          1.1264   -0.6784   -0.0123 N.ar      1 <0>        -0.4122
     10 C9          0.0021   -0.0041    0.0020 C.ar      1 <0>         0.0486
     11 O1          3.4907   -2.1462   -0.0431 O.3       1 <0>        -0.6244
     12 I1          6.4972   -1.2125   -0.0658 I         1 <0>        -0.0786
     13 I2          3.7054    4.1001   -0.0111 I         1 <0>        -0.0888
     14 H1         -0.9589    1.9163    0.0260 H         1 <0>         0.1234
     15 H2          1.1619    3.1663    0.0076 H         1 <0>         0.1306
     16 H3          5.7100    1.7713   -0.0419 H         1 <0>         0.1094
     17 H4         -0.9340   -0.5427    0.0081 H         1 <0>         0.1446
@<TRIPOS>BOND
     1    1   10 ar
     2    1    2 ar
     3    1   14 1
     4    2    3 ar
     5    2   15 1
     6    3    8 ar
     7    3    4 ar
     8    4    5 ar
     9    4   13 1
    10    5    6 ar
    11    5   16 1
    12    6    7 ar
    13    6   12 1
    14    7    8 ar
    15    7   11 1
    16    8    9 ar
    17    9   10 ar
    18   10   17 1
@<TRIPOS>MOLECULE
ZINC22016976
   59    59     0     0     0
SMALL
USER_CHARGES
2-[4,7-bis(carboxymethyl)-10-[(2R)-2-hydroxypropyl]-1,4,7,10-tetrazacyclododec-1-yl]acetic acid
@<TRIPOS>ATOM
      1 C1          9.7908    1.5050   -2.5637 C.3       1 <0>        -0.1496
      2 C2          8.4855    1.8576   -1.8475 C.3       1 <0>         0.0993
      3 H1          7.6191    1.4039   -2.3510 H         1 <0>         0.0689
      4 C3          8.3446    3.3788   -1.7637 C.3       1 <0>        -0.0438
      5 N1          7.0914    3.7173   -1.0761 N.4       1 <0>        -0.3952
      6 C4          6.8033    5.1538   -1.1837 C.3       1 <0>        -0.0795
      7 C5          5.6396    5.3694   -2.1533 C.3       1 <0>         0.0305
      8 N2          4.5511    6.0740   -1.4629 N.3       1 <0>        -0.4972
      9 C6          3.2797    5.3533   -1.6118 C.3       1 <0>         0.0564
     10 C7          2.6198    5.1946   -0.2406 C.3       1 <0>        -0.0625
     11 N3          2.3710    3.7707    0.0213 N.4       1 <0>        -0.3820
     12 C8          2.9917    3.3516    1.2851 C.3       1 <0>         0.0262
     13 C9          3.8617    2.1169    1.0412 C.3       1 <0>         0.0722
     14 N4          5.2182    2.3660    1.5470 N.3       1 <0>        -0.5110
     15 C10         6.2256    2.0730    0.5188 C.3       1 <0>         0.0007
     16 C11         7.1306    3.2920    0.3294 C.3       1 <0>        -0.0474
     17 C12         5.4741    1.5936    2.7700 C.3       1 <0>         0.0039
     18 C13         4.5813    2.0939    3.8762 C.2       1 <0>         0.4645
     19 O1          3.8110    3.0010    3.6673 O.co2     1 <0>        -0.6137
     20 O2          4.6420    1.5320    5.0937 O.co2     1 <0>        -0.7589
     21 C14         0.9313    3.4788    0.0196 C.3       1 <0>        -0.0534
     22 C15         0.7213    1.9867    0.0447 C.2       1 <0>         0.4599
     23 O3          1.6732    1.2428    0.0622 O.co2     1 <0>        -0.6236
     24 O4         -0.5234    1.4841    0.0475 O.co2     1 <0>        -0.7185
     25 C16         4.8749    6.2829   -0.0454 C.3       1 <0>        -0.0330
     26 C17         3.9046    7.2695    0.5514 C.2       1 <0>         0.4557
     27 O5          3.0328    7.7494   -0.1338 O.co2     1 <0>        -0.6110
     28 O6          4.0089    7.6152    1.8442 O.co2     1 <0>        -0.7349
     29 O7          8.5021    1.3074   -0.5288 O.3       1 <0>        -0.6309
     30 H2          9.8921    0.4113   -2.6239 H         1 <0>         0.0798
     31 H3         10.6407    1.9216   -2.0032 H         1 <0>         0.0722
     32 H4          9.7780    1.9285   -3.5788 H         1 <0>         0.0773
     33 H5          9.1945    3.7954   -1.2032 H         1 <0>         0.1354
     34 H6          8.3319    3.8024   -2.7788 H         1 <0>         0.1351
     35 H7          6.5333    5.5488   -0.1932 H         1 <0>         0.1756
     36 H8          7.6943    5.6795   -1.5576 H         1 <0>         0.1359
     37 H9          5.9815    5.9710   -3.0084 H         1 <0>         0.1129
     38 H10         5.2761    4.3952   -2.5123 H         1 <0>         0.0652
     39 H11         2.6121    5.9211   -2.2765 H         1 <0>         0.1140
     40 H12         3.4698    4.3600   -2.0444 H         1 <0>         0.0531
     41 H13         3.2857    5.5993    0.5358 H         1 <0>         0.1712
     42 H14         1.6658    5.7420   -0.2272 H         1 <0>         0.1377
     43 H15         3.6160    4.1687    1.6756 H         1 <0>         0.1407
     44 H16         2.2067    3.1084    2.0162 H         1 <0>         0.1311
     45 H17         3.4276    1.2530    1.5659 H         1 <0>         0.0994
     46 H18         3.9055    1.9065   -0.0376 H         1 <0>         0.0675
     47 H19         6.8322    1.2115    0.8348 H         1 <0>         0.1208
     48 H20         5.7227    1.8386   -0.4310 H         1 <0>         0.0861
     49 H21         8.1627    3.0287    0.6041 H         1 <0>         0.1507
     50 H22         6.7786    4.1133    0.9710 H         1 <0>         0.1576
     51 H23         5.2648    0.5301    2.5825 H         1 <0>         0.0554
     52 H24         6.5268    1.7135    3.0659 H         1 <0>         0.0849
     53 H25         0.4647    3.9298    0.9078 H         1 <0>         0.1299
     54 H26         0.4732    3.8984   -0.8882 H         1 <0>         0.1237
     55 H27         4.8021    5.3260    0.4922 H         1 <0>         0.0600
     56 H28         5.8984    6.6761    0.0428 H         1 <0>         0.0998
     57 H29         7.6426    1.4582    0.1409 H         1 <0>         0.4050
     58 H30         2.8342    3.1916   -0.7912 H         1 <0>         0.4059
     59 H31         6.2756    3.1708   -1.5719 H         1 <0>         0.4238
@<TRIPOS>BOND
     1    1    2 1
     2    1   30 1
     3    1   31 1
     4    1   32 1
     5    2    3 1
     6    2    4 1
     7    2   29 1
     8    4    5 1
     9    4   33 1
    10    4   34 1
    11    5   16 1
    12    5    6 1
    13    5   59 1
    14    6    7 1
    15    6   35 1
    16    6   36 1
    17    7    8 1
    18    7   37 1
    19    7   38 1
    20    8    9 1
    21    8   25 1
    22    9   10 1
    23    9   39 1
    24    9   40 1
    25   10   11 1
    26   10   41 1
    27   10   42 1
    28   11   12 1
    29   11   21 1
    30   11   58 1
    31   12   13 1
    32   12   43 1
    33   12   44 1
    34   13   14 1
    35   13   45 1
    36   13   46 1
    37   14   15 1
    38   14   17 1
    39   15   16 1
    40   15   47 1
    41   15   48 1
    42   16   49 1
    43   16   50 1
    44   17   18 1
    45   17   51 1
    46   17   52 1
    47   18   19 2
    48   18   20 1
    49   21   22 1
    50   21   53 1
    51   21   54 1
    52   22   23 2
    53   22   24 1
    54   25   26 1
    55   25   55 1
    56   25   56 1
    57   26   27 2
    58   26   28 1
    59   29   57 1
@<TRIPOS>MOLECULE
ZINC22016976
   60    60     0     0     0
SMALL
USER_CHARGES
2-[4,7-bis(carboxymethyl)-10-[(2R)-2-hydroxypropyl]-1,4,7,10-tetrazacyclododec-1-yl]acetic acid
@<TRIPOS>ATOM
      1 C1          9.7908    1.5050   -2.5637 C.3       1 <0>        -0.1538
      2 C2          8.4855    1.8576   -1.8475 C.3       1 <0>         0.1000
      3 H1          7.6191    1.4039   -2.3510 H         1 <0>         0.0717
      4 C3          8.3446    3.3788   -1.7637 C.3       1 <0>        -0.0483
      5 N1          7.0914    3.7173   -1.0761 N.4       1 <0>        -0.3972
      6 C4          6.8033    5.1538   -1.1837 C.3       1 <0>        -0.0801
      7 C5          5.6396    5.3694   -2.1533 C.3       1 <0>        -0.0297
      8 N2          4.5511    6.0740   -1.4629 N.4       1 <0>        -0.3860
      9 C6          3.2797    5.3533   -1.6118 C.3       1 <0>        -0.0069
     10 C7          2.6198    5.1946   -0.2406 C.3       1 <0>        -0.0664
     11 N3          2.3710    3.7707    0.0213 N.4       1 <0>        -0.3818
     12 C8          2.9917    3.3516    1.2851 C.3       1 <0>         0.0221
     13 C9          3.8617    2.1169    1.0412 C.3       1 <0>         0.0663
     14 N4          5.2182    2.3660    1.5470 N.3       1 <0>        -0.5128
     15 C10         6.2256    2.0730    0.5188 C.3       1 <0>        -0.0061
     16 C11         7.1306    3.2920    0.3294 C.3       1 <0>        -0.0515
     17 C12         5.4741    1.5936    2.7700 C.3       1 <0>         0.0001
     18 C13         4.5813    2.0939    3.8762 C.2       1 <0>         0.4651
     19 O1          3.8110    3.0010    3.6673 O.co2     1 <0>        -0.6231
     20 O2          4.6420    1.5320    5.0937 O.co2     1 <0>        -0.7451
     21 C14         0.9313    3.4788    0.0196 C.3       1 <0>        -0.0579
     22 C15         0.7213    1.9867    0.0447 C.2       1 <0>         0.4570
     23 O3          1.6732    1.2428    0.0622 O.co2     1 <0>        -0.6222
     24 O4         -0.5234    1.4841    0.0475 O.co2     1 <0>        -0.7016
     25 C16         4.8749    6.2829   -0.0454 C.3       1 <0>        -0.1116
     26 C17         3.9046    7.2695    0.5514 C.2       1 <0>         0.4458
     27 O5          3.0328    7.7494   -0.1338 O.co2     1 <0>        -0.6072
     28 O6          4.0089    7.6152    1.8442 O.co2     1 <0>        -0.6579
     29 O7          8.5021    1.3074   -0.5288 O.3       1 <0>        -0.6244
     30 H2          9.8921    0.4113   -2.6239 H         1 <0>         0.0855
     31 H3         10.6407    1.9216   -2.0032 H         1 <0>         0.0753
     32 H4          9.7780    1.9285   -3.5788 H         1 <0>         0.0794
     33 H5          9.1945    3.7954   -1.2032 H         1 <0>         0.1441
     34 H6          8.3319    3.8024   -2.7788 H         1 <0>         0.1399
     35 H7          6.5333    5.5488   -0.1932 H         1 <0>         0.1822
     36 H8          7.6943    5.6795   -1.5576 H         1 <0>         0.1674
     37 H9          5.9815    5.9710   -3.0084 H         1 <0>         0.1701
     38 H10         5.2761    4.3952   -2.5123 H         1 <0>         0.1371
     39 H11         2.6121    5.9211   -2.2765 H         1 <0>         0.1692
     40 H12         3.4698    4.3600   -2.0444 H         1 <0>         0.1272
     41 H13         3.2857    5.5993    0.5358 H         1 <0>         0.1751
     42 H14         1.6658    5.7420   -0.2272 H         1 <0>         0.1669
     43 H15         3.6160    4.1687    1.6756 H         1 <0>         0.1401
     44 H16         2.2067    3.1084    2.0162 H         1 <0>         0.1430
     45 H17         3.4276    1.2530    1.5659 H         1 <0>         0.1080
     46 H18         3.9055    1.9065   -0.0376 H         1 <0>         0.0697
     47 H19         6.8322    1.2115    0.8348 H         1 <0>         0.1302
     48 H20         5.7227    1.8386   -0.4310 H         1 <0>         0.0886
     49 H21         8.1627    3.0287    0.6041 H         1 <0>         0.1618
     50 H22         6.7786    4.1133    0.9710 H         1 <0>         0.1588
     51 H23         5.2648    0.5301    2.5825 H         1 <0>         0.0616
     52 H24         6.5268    1.7135    3.0659 H         1 <0>         0.0890
     53 H25         0.4647    3.9298    0.9078 H         1 <0>         0.1374
     54 H26         0.4732    3.8984   -0.8882 H         1 <0>         0.1278
     55 H27         4.8021    5.3260    0.4922 H         1 <0>         0.1423
     56 H28         5.8984    6.6761    0.0428 H         1 <0>         0.1557
     57 H29         7.6426    1.4582    0.1409 H         1 <0>         0.4024
     58 H30         2.8342    3.1916   -0.7912 H         1 <0>         0.4076
     59 H31         6.2756    3.1708   -1.5719 H         1 <0>         0.4259
     60 H32         4.4366    7.0621   -1.9326 H         1 <0>         0.4739
@<TRIPOS>BOND
     1    1    2 1
     2    1   30 1
     3    1   31 1
     4    1   32 1
     5    2    3 1
     6    2    4 1
     7    2   29 1
     8    4    5 1
     9    4   33 1
    10    4   34 1
    11    5   16 1
    12    5    6 1
    13    5   59 1
    14    6    7 1
    15    6   35 1
    16    6   36 1
    17    7    8 1
    18    7   37 1
    19    7   38 1
    20    8    9 1
    21    8   25 1
    22    8   60 1
    23    9   10 1
    24    9   39 1
    25    9   40 1
    26   10   11 1
    27   10   41 1
    28   10   42 1
    29   11   12 1
    30   11   21 1
    31   11   58 1
    32   12   13 1
    33   12   43 1
    34   12   44 1
    35   13   14 1
    36   13   45 1
    37   13   46 1
    38   14   15 1
    39   14   17 1
    40   15   16 1
    41   15   47 1
    42   15   48 1
    43   16   49 1
    44   16   50 1
    45   17   18 1
    46   17   51 1
    47   17   52 1
    48   18   19 2
    49   18   20 1
    50   21   22 1
    51   21   53 1
    52   21   54 1
    53   22   23 2
    54   22   24 1
    55   25   26 1
    56   25   55 1
    57   25   56 1
    58   26   27 2
    59   26   28 1
    60   29   57 1
@<TRIPOS>MOLECULE
ZINC03830897
   18    17     0     0     0
SMALL
USER_CHARGES

@<TRIPOS>ATOM
      1 C1         -0.0187    1.5258    0.0104 C.3       1 <0>         0.0670
      2 C2          0.0021   -0.0041    0.0020 C.3       1 <0>         0.1690
      3 C3          0.8250   -0.4964   -1.1902 C.3       1 <0>         0.0676
      4 O1          2.1270    0.0909   -1.1453 O.3       1 <0>        -0.5324
      5 O2          0.5895   -0.4792    1.2150 O.3       1 <0>        -0.7365
      6 P1         -0.1934   -1.4244    2.2569 P.3       1 <0>         2.2037
      7 O3         -0.7142   -2.6799    1.5224 O.2       1 <0>        -1.1100
      8 O4          0.8090   -1.8694    3.4356 O.3       1 <0>        -0.8949
      9 O5         -1.3857   -0.6490    2.8603 O.3       1 <0>        -1.1078
     10 O6          1.3220    2.0204    0.0003 O.3       1 <0>        -0.5324
     11 H1         -0.5459    1.8868   -0.8726 H         1 <0>         0.0470
     12 H2         -0.5289    1.8773    0.9072 H         1 <0>         0.0525
     13 H3         -1.0175   -0.3808   -0.0798 H         1 <0>         0.0828
     14 H4          0.9143   -1.5819   -1.1466 H         1 <0>         0.0513
     15 H5          0.3288   -0.2096   -2.1174 H         1 <0>         0.0472
     16 H6          2.7047   -0.1774   -1.8729 H         1 <0>         0.3564
     17 H7          1.3852    2.9853    0.0049 H         1 <0>         0.3565
     18 H8          0.4038   -2.4420    4.1013 H         1 <0>         0.4132
@<TRIPOS>BOND
     1    1    2 1
     2    1   10 1
     3    1   11 1
     4    1   12 1
     5    2    3 1
     6    2    5 1
     7    2   13 1
     8    3    4 1
     9    3   14 1
    10    3   15 1
    11    4   16 1
    12    5    6 1
    13    6    7 2
    14    6    8 1
    15    6    9 1
    16    8   18 1
    17   10   17 1
@<TRIPOS>MOLECULE
ZINC03830896
   18    17     0     0     0
SMALL
USER_CHARGES

@<TRIPOS>ATOM
      1 C1         -0.0187    1.5258    0.0104 C.3       1 <0>         0.0449
      2 C2          0.0021   -0.0041    0.0020 C.3       1 <0>         0.1029
      3 H1          0.5883   -0.3548   -0.8473 H         1 <0>         0.1103
      4 C3         -1.4290   -0.5329   -0.1129 C.3       1 <0>         0.1091
      5 O1         -1.4023   -1.9562   -0.2379 O.3       1 <0>        -0.7507
      6 P1         -2.7344   -2.8491   -0.3804 P.3       1 <0>         2.2127
      7 O2         -3.5717   -2.3380   -1.5741 O.2       1 <0>        -1.1097
      8 O3         -2.3260   -4.3862   -0.6304 O.3       1 <0>        -0.8961
      9 O4         -3.5674   -2.7419    0.9163 O.3       1 <0>        -1.1071
     10 O5          0.5895   -0.4792    1.2150 O.3       1 <0>        -0.5462
     11 O6          1.3220    2.0204    0.0003 O.3       1 <0>        -0.5635
     12 H2         -0.5459    1.8868   -0.8726 H         1 <0>         0.0595
     13 H3         -0.5289    1.8773    0.9072 H         1 <0>         0.0525
     14 H4         -1.9910   -0.2570    0.7794 H         1 <0>         0.0570
     15 H5         -1.9069   -0.0999   -0.9916 H         1 <0>         0.0640
     16 H6          0.1188   -0.2046    2.0138 H         1 <0>         0.3700
     17 H7          1.3852    2.9853    0.0049 H         1 <0>         0.3757
     18 H8         -3.0807   -4.9832   -0.7259 H         1 <0>         0.4147
@<TRIPOS>BOND
     1    1    2 1
     2    1   11 1
     3    1   12 1
     4    1   13 1
     5    2    3 1
     6    2    4 1
     7    2   10 1
     8    4    5 1
     9    4   14 1
    10    4   15 1
    11    5    6 1
    12    6    7 2
    13    6    8 1
    14    6    9 1
    15    8   18 1
    16   10   16 1
    17   11   17 1
@<TRIPOS>MOLECULE
ZINC22016981
   59    59     0     0     0
SMALL
USER_CHARGES
2-[4,7-bis(carboxymethyl)-10-[(2S)-2-hydroxypropyl]-1,4,7,10-tetrazacyclododec-1-yl]acetic acid
@<TRIPOS>ATOM
      1 C1         10.2628    2.0850   -2.6315 C.3       1 <0>        -0.1497
      2 C2          8.8831    2.2859   -2.0015 C.3       1 <0>         0.0899
      3 H1          8.8141    1.7852   -1.0245 H         1 <0>         0.0807
      4 C3          8.5912    3.7829   -1.8796 C.3       1 <0>        -0.0433
      5 N1          7.3214    3.9777   -1.1671 N.4       1 <0>        -0.3961
      6 C4          6.8886    5.3798   -1.2365 C.3       1 <0>        -0.0107
      7 C5          5.6938    5.4984   -2.1847 C.3       1 <0>         0.0241
      8 N2          4.5511    6.0740   -1.4629 N.3       1 <0>        -0.5125
      9 C6          3.3564    5.2321   -1.6115 C.3       1 <0>         0.0515
     10 C7          2.7379    4.9771   -0.2355 C.3       1 <0>         0.0096
     11 N3          2.6378    3.5299   -0.0042 N.4       1 <0>        -0.3853
     12 C8          3.3177    3.1476    1.2407 C.3       1 <0>         0.0338
     13 C9          4.3035    2.0127    0.9556 C.3       1 <0>         0.0761
     14 N4          5.6359    2.3862    1.4486 N.3       1 <0>        -0.5188
     15 C10         6.6511    2.2193    0.4000 C.3       1 <0>         0.0249
     16 C11         7.4257    3.5274    0.2273 C.3       1 <0>        -0.0182
     17 C12         5.9878    1.6165    2.6493 C.3       1 <0>         0.0111
     18 C13         5.0671    1.9994    3.7792 C.2       1 <0>         0.4644
     19 O1          4.2061    2.8285    3.6024 O.co2     1 <0>        -0.6188
     20 O2          5.2035    1.4195    4.9820 O.co2     1 <0>        -0.7620
     21 C14         1.2350    3.0943    0.0069 C.3       1 <0>        -0.0520
     22 C15         1.1765    1.5884   -0.0006 C.2       1 <0>         0.4586
     23 O3          2.1986    0.9442   -0.0139 O.co2     1 <0>        -0.6236
     24 O4         -0.0110    0.9628    0.0073 O.co2     1 <0>        -0.7211
     25 C16         4.2853    7.4484   -1.9083 C.3       1 <0>         0.0091
     26 C17         3.2786    8.0889   -0.9877 C.2       1 <0>         0.4620
     27 O5          2.8287    7.4645   -0.0562 O.co2     1 <0>        -0.6184
     28 O6          2.8817    9.3530   -1.2026 O.co2     1 <0>        -0.7574
     29 O7          7.8894    1.6723   -2.8250 O.3       1 <0>        -0.5803
     30 H2         10.4727    1.0088   -2.7191 H         1 <0>         0.0815
     31 H3         11.0276    2.5573   -1.9975 H         1 <0>         0.0828
     32 H4         10.2800    2.5445   -3.6308 H         1 <0>         0.0731
     33 H5          9.4037    4.2706   -1.3210 H         1 <0>         0.1363
     34 H6          8.5197    4.2255   -2.8841 H         1 <0>         0.1355
     35 H7          6.5961    5.7233   -0.2333 H         1 <0>         0.1531
     36 H8          7.7161    6.0009   -1.6099 H         1 <0>         0.1268
     37 H9          5.9597    6.1503   -3.0298 H         1 <0>         0.0900
     38 H10         5.4245    4.5008   -2.5618 H         1 <0>         0.0734
     39 H11         2.6245    5.7443   -2.2533 H         1 <0>         0.0815
     40 H12         3.6385    4.2729   -2.0702 H         1 <0>         0.0622
     41 H13         3.3721    5.4295    0.5411 H         1 <0>         0.1562
     42 H14         1.7340    5.4250   -0.1960 H         1 <0>         0.1279
     43 H15         3.8628    4.0147    1.6419 H         1 <0>         0.1400
     44 H16         2.5729    2.8102    1.9766 H         1 <0>         0.1241
     45 H17         3.9670    1.0980    1.4655 H         1 <0>         0.0920
     46 H18         4.3510    1.8319   -0.1284 H         1 <0>         0.0647
     47 H19         7.3463    1.4166    0.6872 H         1 <0>         0.0887
     48 H20         6.1592    1.9565   -0.5481 H         1 <0>         0.0672
     49 H21         8.4833    3.3636    0.4816 H         1 <0>         0.1258
     50 H22         7.0031    4.2944    0.8929 H         1 <0>         0.1541
     51 H23         5.8835    0.5417    2.4395 H         1 <0>         0.0499
     52 H24         7.0277    1.8354    2.9335 H         1 <0>         0.0794
     53 H25         0.7397    3.4760    0.9119 H         1 <0>         0.1284
     54 H26         0.7225    3.4856   -0.8843 H         1 <0>         0.1211
     55 H27         5.2204    8.0274   -1.8889 H         1 <0>         0.0849
     56 H28         3.8860    7.4310   -2.9331 H         1 <0>         0.0496
     57 H29         6.8300    1.7135   -2.5317 H         1 <0>         0.3998
     58 H30         3.1437    3.0187   -0.8365 H         1 <0>         0.4049
     59 H31         6.5569    3.3629   -1.6646 H         1 <0>         0.4176
@<TRIPOS>BOND
     1    1    2 1
     2    1   30 1
     3    1   31 1
     4    1   32 1
     5    2    3 1
     6    2    4 1
     7    2   29 1
     8    4    5 1
     9    4   33 1
    10    4   34 1
    11    5   16 1
    12    5    6 1
    13    5   59 1
    14    6    7 1
    15    6   35 1
    16    6   36 1
    17    7    8 1
    18    7   37 1
    19    7   38 1
    20    8    9 1
    21    8   25 1
    22    9   10 1
    23    9   39 1
    24    9   40 1
    25   10   11 1
    26   10   41 1
    27   10   42 1
    28   11   12 1
    29   11   21 1
    30   11   58 1
    31   12   13 1
    32   12   43 1
    33   12   44 1
    34   13   14 1
    35   13   45 1
    36   13   46 1
    37   14   15 1
    38   14   17 1
    39   15   16 1
    40   15   47 1
    41   15   48 1
    42   16   49 1
    43   16   50 1
    44   17   18 1
    45   17   51 1
    46   17   52 1
    47   18   19 2
    48   18   20 1
    49   21   22 1
    50   21   53 1
    51   21   54 1
    52   22   23 2
    53   22   24 1
    54   25   26 1
    55   25   55 1
    56   25   56 1
    57   26   27 2
    58   26   28 1
    59   29   57 1
@<TRIPOS>MOLECULE
ZINC03830895
   18    17     0     0     0
SMALL
USER_CHARGES

@<TRIPOS>ATOM
      1 C1         -0.0187    1.5258    0.0104 C.3       1 <0>         0.0450
      2 C2          0.0021   -0.0041    0.0020 C.3       1 <0>         0.1028
      3 H1          0.6044   -0.3639    0.8362 H         1 <0>         0.1107
      4 C3         -1.4266   -0.5342    0.1385 C.3       1 <0>         0.1091
      5 O1         -1.3977   -1.9588    0.2477 O.3       1 <0>        -0.7507
      6 P1         -2.7269   -2.8533    0.4061 P.3       1 <0>         2.2127
      7 O2         -3.6993   -2.5404   -0.7531 O.2       1 <0>        -1.1095
      8 O3         -2.3314   -4.4135    0.3685 O.3       1 <0>        -0.8959
      9 O4         -3.4096   -2.5273    1.7532 O.3       1 <0>        -1.1075
     10 O5          0.5662   -0.4660   -1.2270 O.3       1 <0>        -0.5463
     11 O6          1.3220    2.0204    0.0003 O.3       1 <0>        -0.5635
     12 H2         -0.5459    1.8868   -0.8726 H         1 <0>         0.0525
     13 H3         -0.5289    1.8773    0.9072 H         1 <0>         0.0595
     14 H4         -1.8876   -0.1107    1.0309 H         1 <0>         0.0621
     15 H5         -2.0055   -0.2489   -0.7398 H         1 <0>         0.0590
     16 H6          0.0804   -0.1829   -2.0137 H         1 <0>         0.3697
     17 H7          1.3852    2.9853    0.0049 H         1 <0>         0.3757
     18 H8         -3.0851   -5.0126    0.4587 H         1 <0>         0.4146
@<TRIPOS>BOND
     1    1    2 1
     2    1   11 1
     3    1   12 1
     4    1   13 1
     5    2    3 1
     6    2    4 1
     7    2   10 1
     8    4    5 1
     9    4   14 1
    10    4   15 1
    11    5    6 1
    12    6    7 2
    13    6    8 1
    14    6    9 1
    15    8   18 1
    16   10   16 1
    17   11   17 1
@<TRIPOS>MOLECULE
ZINC22016981
   60    60     0     0     0
SMALL
USER_CHARGES
2-[4,7-bis(carboxymethyl)-10-[(2S)-2-hydroxypropyl]-1,4,7,10-tetrazacyclododec-1-yl]acetic acid
@<TRIPOS>ATOM
      1 C1         10.2628    2.0850   -2.6315 C.3       1 <0>        -0.1537
      2 C2          8.8831    2.2859   -2.0015 C.3       1 <0>         0.0899
      3 H1          8.8141    1.7852   -1.0245 H         1 <0>         0.0853
      4 C3          8.5912    3.7829   -1.8796 C.3       1 <0>        -0.0477
      5 N1          7.3214    3.9777   -1.1671 N.4       1 <0>        -0.4011
      6 C4          6.8886    5.3798   -1.2365 C.3       1 <0>        -0.0348
      7 C5          5.6938    5.4984   -2.1847 C.3       1 <0>        -0.0369
      8 N2          4.5511    6.0740   -1.4629 N.4       1 <0>        -0.3876
      9 C6          3.3564    5.2321   -1.6115 C.3       1 <0>        -0.0142
     10 C7          2.7379    4.9771   -0.2355 C.3       1 <0>        -0.0164
     11 N3          2.6378    3.5299   -0.0042 N.4       1 <0>        -0.3869
     12 C8          3.3177    3.1476    1.2407 C.3       1 <0>         0.0254
     13 C9          4.3035    2.0127    0.9556 C.3       1 <0>         0.0681
     14 N4          5.6359    2.3862    1.4486 N.3       1 <0>        -0.5220
     15 C10         6.6511    2.2193    0.4000 C.3       1 <0>         0.0160
     16 C11         7.4257    3.5274    0.2273 C.3       1 <0>        -0.0257
     17 C12         5.9878    1.6165    2.6493 C.3       1 <0>         0.0072
     18 C13         5.0671    1.9994    3.7792 C.2       1 <0>         0.4648
     19 O1          4.2061    2.8285    3.6024 O.co2     1 <0>        -0.6287
     20 O2          5.2035    1.4195    4.9820 O.co2     1 <0>        -0.7467
     21 C14         1.2350    3.0943    0.0069 C.3       1 <0>        -0.0569
     22 C15         1.1765    1.5884   -0.0006 C.2       1 <0>         0.4562
     23 O3          2.1986    0.9442   -0.0139 O.co2     1 <0>        -0.6225
     24 O4         -0.0110    0.9628    0.0073 O.co2     1 <0>        -0.7021
     25 C16         4.2853    7.4484   -1.9083 C.3       1 <0>        -0.0621
     26 C17         3.2786    8.0889   -0.9877 C.2       1 <0>         0.4501
     27 O5          2.8287    7.4645   -0.0562 O.co2     1 <0>        -0.6175
     28 O6          2.8817    9.3530   -1.2026 O.co2     1 <0>        -0.6831
     29 O7          7.8894    1.6723   -2.8250 O.3       1 <0>        -0.5731
     30 H2         10.4727    1.0088   -2.7191 H         1 <0>         0.0878
     31 H3         11.0276    2.5573   -1.9975 H         1 <0>         0.0868
     32 H4         10.2800    2.5445   -3.6308 H         1 <0>         0.0757
     33 H5          9.4037    4.2706   -1.3210 H         1 <0>         0.1465
     34 H6          8.5197    4.2255   -2.8841 H         1 <0>         0.1425
     35 H7          6.5961    5.7233   -0.2333 H         1 <0>         0.1542
     36 H8          7.7161    6.0009   -1.6099 H         1 <0>         0.1693
     37 H9          5.9597    6.1503   -3.0298 H         1 <0>         0.1702
     38 H10         5.4245    4.5008   -2.5618 H         1 <0>         0.1393
     39 H11         2.6245    5.7443   -2.2533 H         1 <0>         0.1612
     40 H12         3.6385    4.2729   -2.0702 H         1 <0>         0.1287
     41 H13         3.3721    5.4295    0.5411 H         1 <0>         0.1559
     42 H14         1.7340    5.4250   -0.1960 H         1 <0>         0.1681
     43 H15         3.8628    4.0147    1.6419 H         1 <0>         0.1388
     44 H16         2.5729    2.8102    1.9766 H         1 <0>         0.1394
     45 H17         3.9670    1.0980    1.4655 H         1 <0>         0.1032
     46 H18         4.3510    1.8319   -0.1284 H         1 <0>         0.0679
     47 H19         7.3463    1.4166    0.6872 H         1 <0>         0.1009
     48 H20         6.1592    1.9565   -0.5481 H         1 <0>         0.0710
     49 H21         8.4833    3.3636    0.4816 H         1 <0>         0.1412
     50 H22         7.0031    4.2944    0.8929 H         1 <0>         0.1535
     51 H23         5.8835    0.5417    2.4395 H         1 <0>         0.0574
     52 H24         7.0277    1.8354    2.9335 H         1 <0>         0.0843
     53 H25         0.7397    3.4760    0.9119 H         1 <0>         0.1371
     54 H26         0.7225    3.4856   -0.8843 H         1 <0>         0.1276
     55 H27         5.2204    8.0274   -1.8889 H         1 <0>         0.1403
     56 H28         3.8860    7.4310   -2.9331 H         1 <0>         0.1401
     57 H29         6.8300    1.7135   -2.5317 H         1 <0>         0.3937
     58 H30         3.1437    3.0187   -0.8365 H         1 <0>         0.4086
     59 H31         6.5569    3.3629   -1.6646 H         1 <0>         0.4208
     60 H32         4.8092    6.1090   -0.3942 H         1 <0>         0.4452
@<TRIPOS>BOND
     1    1    2 1
     2    1   30 1
     3    1   31 1
     4    1   32 1
     5    2    3 1
     6    2    4 1
     7    2   29 1
     8    4    5 1
     9    4   33 1
    10    4   34 1
    11    5   16 1
    12    5    6 1
    13    5   59 1
    14    6    7 1
    15    6   35 1
    16    6   36 1
    17    7    8 1
    18    7   37 1
    19    7   38 1
    20    8    9 1
    21    8   25 1
    22    8   60 1
    23    9   10 1
    24    9   39 1
    25    9   40 1
    26   10   11 1
    27   10   41 1
    28   10   42 1
    29   11   12 1
    30   11   21 1
    31   11   58 1
    32   12   13 1
    33   12   43 1
    34   12   44 1
    35   13   14 1
    36   13   45 1
    37   13   46 1
    38   14   15 1
    39   14   17 1
    40   15   16 1
    41   15   47 1
    42   15   48 1
    43   16   49 1
    44   16   50 1
    45   17   18 1
    46   17   51 1
    47   17   52 1
    48   18   19 2
    49   18   20 1
    50   21   22 1
    51   21   53 1
    52   21   54 1
    53   22   23 2
    54   22   24 1
    55   25   26 1
    56   25   55 1
    57   25   56 1
    58   26   27 2
    59   26   28 1
    60   29   57 1
@<TRIPOS>MOLECULE
ZINC03830890
   25    25     0     0     0
SMALL
USER_CHARGES

@<TRIPOS>ATOM
      1 C1         -0.0187    1.5258    0.0104 C.3       1 <0>         0.0777
      2 C2          0.0021   -0.0041    0.0020 C.3       1 <0>         0.0657
      3 H1          0.6044   -0.3640    0.8361 H         1 <0>         0.0910
      4 C3         -1.4274   -0.5348    0.1380 C.3       1 <0>         0.0876
      5 H2         -1.8434   -0.2200    1.0951 H         1 <0>         0.0789
      6 C4         -1.4045   -2.0648    0.0683 C.3       1 <0>         0.1236
      7 H3         -2.4246   -2.4470    0.1083 H         1 <0>         0.0771
      8 C5         -0.7473   -2.4952   -1.2466 C.3       1 <0>         0.0467
      9 H4         -1.3465   -2.1424   -2.0860 H         1 <0>         0.1156
     10 C6          0.6560   -1.8888   -1.3292 C.3       1 <0>         0.2282
     11 H5          1.1123   -2.1566   -2.2821 H         1 <0>         0.0938
     12 O1          0.5657   -0.4663   -1.2271 O.3       1 <0>        -0.3788
     13 O2          1.4569   -2.3935   -0.2587 O.3       1 <0>        -0.5658
     14 N1         -0.6536   -3.9606   -1.2920 N.3       1 <0>        -0.8329
     15 O3         -0.6566   -2.5824    1.1705 O.3       1 <0>        -0.5451
     16 O4         -2.2314   -0.0191   -0.9248 O.3       1 <0>        -0.5518
     17 O5          1.3220    2.0204    0.0003 O.3       1 <0>        -0.5625
     18 H6         -0.5459    1.8868   -0.8726 H         1 <0>         0.0559
     19 H7         -0.5289    1.8773    0.9072 H         1 <0>         0.0634
     20 H8          2.3611   -2.0508   -0.2487 H         1 <0>         0.3843
     21 H9         -0.2230   -4.2689   -2.1508 H         1 <0>         0.3489
     22 H10        -0.6008   -3.5476    1.1893 H         1 <0>         0.3851
     23 H11        -2.2865    0.9461   -0.9437 H         1 <0>         0.3845
     24 H12         1.3852    2.9853    0.0049 H         1 <0>         0.3829
     25 H13        -0.1555   -4.3161   -0.4898 H         1 <0>         0.3460
@<TRIPOS>BOND
     1    1    2 1
     2    1   17 1
     3    1   18 1
     4    1   19 1
     5    2    3 1
     6    2   12 1
     7    2    4 1
     8    4    5 1
     9    4    6 1
    10    4   16 1
    11    6    7 1
    12    6    8 1
    13    6   15 1
    14    8    9 1
    15    8   10 1
    16    8   14 1
    17   10   11 1
    18   10   12 1
    19   10   13 1
    20   13   20 1
    21   14   21 1
    22   14   25 1
    23   15   22 1
    24   16   23 1
    25   17   24 1
@<TRIPOS>MOLECULE
ZINC03830889
   25    25     0     0     0
SMALL
USER_CHARGES

@<TRIPOS>ATOM
      1 C1         -0.0187    1.5258    0.0104 C.3       1 <0>         0.0812
      2 C2          0.0021   -0.0041    0.0020 C.3       1 <0>         0.0715
      3 H1          0.5883   -0.3550   -0.8473 H         1 <0>         0.0803
      4 C3         -1.4298   -0.5335   -0.1124 C.3       1 <0>         0.0844
      5 H2         -2.0272   -0.1498    0.7147 H         1 <0>         0.0796
      6 C4         -1.4057   -2.0641   -0.0595 C.3       1 <0>         0.1229
      7 H3         -0.8501   -2.4498   -0.9143 H         1 <0>         0.0708
      8 C5         -0.7236   -2.5086    1.2379 C.3       1 <0>         0.0425
      9 H4         -0.6525   -3.5961    1.2581 H         1 <0>         0.1065
     10 C6          0.6811   -1.9029    1.3002 C.3       1 <0>         0.2300
     11 H5          1.2762   -2.2788    0.4679 H         1 <0>         0.0580
     12 O1          0.5890   -0.4794    1.2152 O.3       1 <0>        -0.3914
     13 O2          1.3031   -2.2676    2.5339 O.3       1 <0>        -0.5394
     14 N1         -1.5102   -2.0466    2.3893 N.3       1 <0>        -0.8194
     15 O3         -2.7437   -2.5648   -0.0939 O.3       1 <0>        -0.5341
     16 O4         -1.9994   -0.1061   -1.3513 O.3       1 <0>        -0.5436
     17 O5          1.3220    2.0204    0.0003 O.3       1 <0>        -0.5623
     18 H6         -0.5459    1.8868   -0.8726 H         1 <0>         0.0669
     19 H7         -0.5289    1.8773    0.9072 H         1 <0>         0.0607
     20 H8          2.1980   -1.9175    2.6418 H         1 <0>         0.3934
     21 H9         -1.0799   -2.3279    3.2575 H         1 <0>         0.3527
     22 H10        -2.8037   -3.5294   -0.0635 H         1 <0>         0.3822
     23 H11        -2.0418    0.8545   -1.4541 H         1 <0>         0.3792
     24 H12         1.3852    2.9853    0.0049 H         1 <0>         0.3860
     25 H13        -1.6429   -1.0468    2.3588 H         1 <0>         0.3416
@<TRIPOS>BOND
     1    1    2 1
     2    1   17 1
     3    1   18 1
     4    1   19 1
     5    2    3 1
     6    2   12 1
     7    2    4 1
     8    4    5 1
     9    4    6 1
    10    4   16 1
    11    6    7 1
    12    6    8 1
    13    6   15 1
    14    8    9 1
    15    8   10 1
    16    8   14 1
    17   10   11 1
    18   10   12 1
    19   10   13 1
    20   13   20 1
    21   14   21 1
    22   14   25 1
    23   15   22 1
    24   16   23 1
    25   17   24 1
@<TRIPOS>MOLECULE
ZINC03830888
   25    25     0     0     0
SMALL
USER_CHARGES

@<TRIPOS>ATOM
      1 C1         -0.0187    1.5258    0.0104 C.3       1 <0>         0.0785
      2 C2          0.0021   -0.0041    0.0020 C.3       1 <0>         0.0645
      3 H1          0.6044   -0.3640    0.8361 H         1 <0>         0.0925
      4 C3         -1.4274   -0.5348    0.1380 C.3       1 <0>         0.0906
      5 H2         -2.0404   -0.1423   -0.6733 H         1 <0>         0.0768
      6 C4         -1.4045   -2.0648    0.0683 C.3       1 <0>         0.1220
      7 H3         -2.4246   -2.4470    0.1083 H         1 <0>         0.0753
      8 C5         -0.7473   -2.4952   -1.2466 C.3       1 <0>         0.0423
      9 H4         -1.3465   -2.1424   -2.0860 H         1 <0>         0.1102
     10 C6          0.6560   -1.8888   -1.3292 C.3       1 <0>         0.2267
     11 H5          1.1123   -2.1566   -2.2821 H         1 <0>         0.0967
     12 O1          0.5657   -0.4663   -1.2271 O.3       1 <0>        -0.3831
     13 O2          1.4569   -2.3935   -0.2587 O.3       1 <0>        -0.5624
     14 N1         -0.6536   -3.9606   -1.2920 N.3       1 <0>        -0.8298
     15 O3         -0.6566   -2.5824    1.1705 O.3       1 <0>        -0.5342
     16 O4         -1.9732   -0.1208    1.3921 O.3       1 <0>        -0.5435
     17 O5          1.3220    2.0204    0.0003 O.3       1 <0>        -0.5623
     18 H6         -0.5459    1.8868   -0.8726 H         1 <0>         0.0557
     19 H7         -0.5289    1.8773    0.9072 H         1 <0>         0.0620
     20 H8          2.3611   -2.0508   -0.2487 H         1 <0>         0.3856
     21 H9         -0.2230   -4.2689   -2.1508 H         1 <0>         0.3507
     22 H10        -0.6008   -3.5476    1.1893 H         1 <0>         0.3755
     23 H11        -2.0135    0.8386    1.5061 H         1 <0>         0.3775
     24 H12         1.3852    2.9853    0.0049 H         1 <0>         0.3829
     25 H13        -0.1555   -4.3161   -0.4898 H         1 <0>         0.3495
@<TRIPOS>BOND
     1    1    2 1
     2    1   17 1
     3    1   18 1
     4    1   19 1
     5    2    3 1
     6    2   12 1
     7    2    4 1
     8    4    5 1
     9    4    6 1
    10    4   16 1
    11    6    7 1
    12    6    8 1
    13    6   15 1
    14    8    9 1
    15    8   10 1
    16    8   14 1
    17   10   11 1
    18   10   12 1
    19   10   13 1
    20   13   20 1
    21   14   21 1
    22   14   25 1
    23   15   22 1
    24   16   23 1
    25   17   24 1
@<TRIPOS>MOLECULE
ZINC03830887
   25    25     0     0     0
SMALL
USER_CHARGES

@<TRIPOS>ATOM
      1 C1          0.4331    1.5054    0.3272 C.3       1 <0>         0.0817
      2 C2          0.3017   -0.0145    0.2109 C.3       1 <0>         0.0738
      3 H1          0.8868   -0.3659   -0.6389 H         1 <0>         0.0712
      4 C3         -1.1694   -0.3855    0.0062 C.3       1 <0>         0.0954
      5 H2         -1.5269    0.0448   -0.9293 H         1 <0>         0.0682
      6 C4         -1.3003   -1.9107   -0.0491 C.3       1 <0>         0.1172
      7 H3         -0.7487   -2.2932   -0.9079 H         1 <0>         0.0724
      8 C5         -0.7236   -2.5086    1.2379 C.3       1 <0>         0.0441
      9 H4         -0.7622   -3.5965    1.1833 H         1 <0>         0.0463
     10 C6          0.7303   -2.0555    1.3950 C.3       1 <0>         0.2768
     11 H5          1.3211   -2.4338    0.5608 H         1 <0>         0.0533
     12 O1          0.7843   -0.6276    1.4081 O.3       1 <0>        -0.3737
     13 O2          1.2580   -2.5638    2.6219 O.3       1 <0>        -0.5418
     14 N1         -1.5102   -2.0466    2.3893 N.3       1 <0>        -0.8021
     15 O3         -2.6787   -2.2682   -0.1684 O.3       1 <0>        -0.5425
     16 O4         -1.9458    0.1225    1.0930 O.3       1 <0>        -0.5079
     17 O5          1.8154    1.8597    0.4019 O.3       1 <0>        -0.5641
     18 H6         -0.0161    1.9769   -0.5469 H         1 <0>         0.0647
     19 H7         -0.0786    1.8465    1.2272 H         1 <0>         0.0626
     20 H8          2.1777   -2.3152    2.7875 H         1 <0>         0.3912
     21 H9         -2.4660   -2.3634    2.3248 H         1 <0>         0.3436
     22 H10        -2.8357   -3.2216   -0.2089 H         1 <0>         0.3774
     23 H11        -1.9053    1.0838    1.1897 H         1 <0>         0.3630
     24 H12         1.9742    2.8106    0.4774 H         1 <0>         0.3843
     25 H13        -1.0890   -2.3425    3.2571 H         1 <0>         0.3450
@<TRIPOS>BOND
     1    1    2 1
     2    1   17 1
     3    1   18 1
     4    1   19 1
     5    2    3 1
     6    2   12 1
     7    2    4 1
     8    4    5 1
     9    4    6 1
    10    4   16 1
    11    6    7 1
    12    6    8 1
    13    6   15 1
    14    8    9 1
    15    8   10 1
    16    8   14 1
    17   10   11 1
    18   10   12 1
    19   10   13 1
    20   13   20 1
    21   14   21 1
    22   14   25 1
    23   15   22 1
    24   16   23 1
    25   17   24 1
@<TRIPOS>MOLECULE
ZINC03830749
   54    55     0     0     0
SMALL
USER_CHARGES

@<TRIPOS>ATOM
      1 C1         -0.0187    1.5258    0.0104 C.3       1 <0>        -0.1503
      2 C2          0.0021   -0.0041    0.0020 C.3       1 <0>         0.0601
      3 O1          0.6709   -0.4649   -1.1737 O.3       1 <0>        -0.3591
      4 C3          0.7755   -1.7935   -1.3341 C.2       1 <0>         0.4539
      5 O2          0.3143   -2.5404   -0.5039 O.2       1 <0>        -0.4648
      6 C4          1.4679   -2.3535   -2.5498 C.3       1 <0>         0.1033
      7 H1          0.9501   -2.0196   -3.4490 H         1 <0>         0.0826
      8 C5          2.9165   -1.8620   -2.5833 C.3       1 <0>        -0.1103
      9 C6          3.5831   -2.3273   -3.8795 C.3       1 <0>        -0.0881
     10 C7          5.0098   -1.8432   -3.9124 C.ar      1 <0>        -0.0768
     11 C8          5.3095   -0.6124   -4.4657 C.ar      1 <0>        -0.1171
     12 C9          6.6183   -0.1684   -4.4959 C.ar      1 <0>        -0.1215
     13 C10         7.6273   -0.9550   -3.9725 C.ar      1 <0>        -0.1267
     14 C11         7.3275   -2.1855   -3.4184 C.ar      1 <0>        -0.1178
     15 C12         6.0182   -2.6276   -3.3843 C.ar      1 <0>        -0.1130
     16 N1          1.4500   -3.8212   -2.4910 N.3       1 <0>        -0.6518
     17 C13         0.1953   -4.3547   -3.0378 C.3       1 <0>         0.0770
     18 H2         -0.1360   -3.7276   -3.8654 H         1 <0>         0.0613
     19 C14        -0.8747   -4.3632   -1.9442 C.3       1 <0>        -0.1388
     20 C15         0.4202   -5.7607   -3.5315 C.2       1 <0>         0.5287
     21 O3          1.5176   -6.2682   -3.4372 O.2       1 <0>        -0.5285
     22 N2         -0.5982   -6.4540   -4.0779 N.am      1 <0>        -0.5844
     23 C16        -1.9750   -5.9590   -4.2592 C.3       1 <0>         0.1008
     24 C17        -2.5503   -6.8043   -5.4229 C.3       1 <0>        -0.1326
     25 C18        -1.9151   -8.1920   -5.1436 C.3       1 <0>        -0.1099
     26 C19        -0.5186   -7.8270   -4.5976 C.3       1 <0>         0.0662
     27 H3          0.2194   -7.8781   -5.3981 H         1 <0>         0.0663
     28 C20        -0.1416   -8.7741   -3.4877 C.2       1 <0>         0.4983
     29 O4         -0.4699   -8.5290   -2.3394 O.co2     1 <0>        -0.6828
     30 O5          0.4917   -9.7854   -3.7381 O.co2     1 <0>        -0.6986
     31 H4          1.0039    1.9031    0.0027 H         1 <0>         0.0652
     32 H5         -0.5459    1.8868   -0.8726 H         1 <0>         0.0649
     33 H6         -0.5289    1.8773    0.9072 H         1 <0>         0.0768
     34 H7          0.5293   -0.3651    0.8851 H         1 <0>         0.0661
     35 H8         -1.0205   -0.3814    0.0098 H         1 <0>         0.0655
     36 H9          2.9319   -0.7731   -2.5373 H         1 <0>         0.0864
     37 H10         3.4582   -2.2694   -1.7296 H         1 <0>         0.0826
     38 H11         3.5677   -3.4162   -3.9254 H         1 <0>         0.0809
     39 H12         3.0414   -1.9199   -4.7331 H         1 <0>         0.0764
     40 H13         4.5212    0.0022   -4.8747 H         1 <0>         0.1209
     41 H14         6.8525    0.7930   -4.9288 H         1 <0>         0.1194
     42 H15         8.6499   -0.6084   -3.9967 H         1 <0>         0.1187
     43 H16         8.1158   -2.8002   -3.0097 H         1 <0>         0.1215
     44 H17         5.7835   -3.5873   -2.9480 H         1 <0>         0.1261
     45 H18        -1.0374   -3.3463   -1.5871 H         1 <0>         0.0670
     46 H19        -1.8057   -4.7591   -2.3499 H         1 <0>         0.0588
     47 H20        -0.5434   -4.9904   -1.1165 H         1 <0>         0.0739
     48 H21        -2.5575   -6.1168   -3.3516 H         1 <0>         0.0712
     49 H22        -1.9661   -4.9022   -4.5262 H         1 <0>         0.0660
     50 H23        -3.6378   -6.8544   -5.3689 H         1 <0>         0.0784
     51 H24        -2.2262   -6.4132   -6.3873 H         1 <0>         0.0702
     52 H25        -2.4937   -8.7381   -4.3986 H         1 <0>         0.0746
     53 H26        -1.8279   -8.7686   -6.0645 H         1 <0>         0.0742
     54 H27         2.2480   -4.2120   -2.9691 H         1 <0>         0.3686
@<TRIPOS>BOND
     1    1    2 1
     2    1   31 1
     3    1   32 1
     4    1   33 1
     5    2    3 1
     6    2   34 1
     7    2   35 1
     8    3    4 1
     9    4    5 2
    10    4    6 1
    11    6    7 1
    12    6    8 1
    13    6   16 1
    14    8    9 1
    15    8   36 1
    16    8   37 1
    17    9   10 1
    18    9   38 1
    19    9   39 1
    20   10   15 ar
    21   10   11 ar
    22   11   12 ar
    23   11   40 1
    24   12   13 ar
    25   12   41 1
    26   13   14 ar
    27   13   42 1
    28   14   15 ar
    29   14   43 1
    30   15   44 1
    31   16   17 1
    32   16   54 1
    33   17   18 1
    34   17   19 1
    35   17   20 1
    36   19   45 1
    37   19   46 1
    38   19   47 1
    39   20   21 2
    40   20   22 am
    41   22   26 1
    42   22   23 1
    43   23   24 1
    44   23   48 1
    45   23   49 1
    46   24   25 1
    47   24   50 1
    48   24   51 1
    49   25   26 1
    50   25   52 1
    51   25   53 1
    52   26   27 1
    53   26   28 1
    54   28   29 2
    55   28   30 1
@<TRIPOS>MOLECULE
ZINC03830748
   54    55     0     0     0
SMALL
USER_CHARGES

@<TRIPOS>ATOM
      1 C1         -1.1596    1.5174   -0.2815 C.3       1 <0>        -0.1483
      2 C2         -0.9821   -0.0015   -0.2332 C.3       1 <0>         0.0592
      3 O1         -0.0691   -0.4071   -1.2550 O.3       1 <0>        -0.3622
      4 C3          0.1972   -1.7194   -1.3483 C.2       1 <0>         0.4439
      5 O2         -0.3274   -2.4979   -0.5876 O.2       1 <0>        -0.4522
      6 C4          1.1505   -2.2217   -2.4018 C.3       1 <0>         0.1069
      7 H1          0.7718   -1.9590   -3.3895 H         1 <0>         0.0828
      8 C5          2.5238   -1.5797   -2.1948 C.3       1 <0>        -0.1116
      9 C6          3.4566   -1.9918   -3.3353 C.3       1 <0>        -0.0847
     10 C7          4.8092   -1.3594   -3.1314 C.ar      1 <0>        -0.0779
     11 C8          5.0768   -0.1126   -3.6650 C.ar      1 <0>        -0.1166
     12 C9          6.3175    0.4675   -3.4780 C.ar      1 <0>        -0.1210
     13 C10         7.2905   -0.1990   -2.7570 C.ar      1 <0>        -0.1264
     14 C11         7.0227   -1.4454   -2.2226 C.ar      1 <0>        -0.1180
     15 C12         5.7805   -2.0237   -2.4060 C.ar      1 <0>        -0.1138
     16 N1          1.2718   -3.6819   -2.2963 N.3       1 <0>        -0.6467
     17 C13         0.1969   -4.3544   -3.0382 C.3       1 <0>         0.0786
     18 H2         -0.7175   -3.7655   -2.9665 H         1 <0>         0.0924
     19 C14         0.6006   -4.4928   -4.5075 C.3       1 <0>        -0.1784
     20 C15        -0.0392   -5.7221   -2.4511 C.2       1 <0>         0.5455
     21 O3          0.8611   -6.3006   -1.8803 O.2       1 <0>        -0.5238
     22 N2         -1.2507   -6.3024   -2.5603 N.am      1 <0>        -0.5901
     23 C16        -2.3956   -5.7649   -3.3177 C.3       1 <0>         0.1010
     24 C17        -3.2648   -7.0024   -3.6538 C.3       1 <0>        -0.1307
     25 C18        -3.1081   -7.8524   -2.3652 C.3       1 <0>        -0.1098
     26 C19        -1.6474   -7.5793   -1.9491 C.3       1 <0>         0.0679
     27 H3         -1.0014   -8.3796   -2.3102 H         1 <0>         0.0649
     28 C20        -1.5549   -7.4798   -0.4483 C.2       1 <0>         0.4961
     29 O4         -1.7358   -6.4080    0.1039 O.co2     1 <0>        -0.6782
     30 O5         -1.2991   -8.4711    0.2138 O.co2     1 <0>        -0.7017
     31 H4         -0.1961    2.0011   -0.1208 H         1 <0>         0.0642
     32 H5         -1.5532    1.8064   -1.2560 H         1 <0>         0.0639
     33 H6         -1.8559    1.8268    0.4979 H         1 <0>         0.0766
     34 H7         -0.5885   -0.2905    0.7413 H         1 <0>         0.0666
     35 H8         -1.9456   -0.4852   -0.3939 H         1 <0>         0.0663
     36 H9          2.4198   -0.4947   -2.1845 H         1 <0>         0.0873
     37 H10         2.9415   -1.9136   -1.2450 H         1 <0>         0.0834
     38 H11         3.5606   -3.0768   -3.3456 H         1 <0>         0.0774
     39 H12         3.0389   -1.6579   -4.2851 H         1 <0>         0.0768
     40 H13         4.3166    0.4082   -4.2283 H         1 <0>         0.1213
     41 H14         6.5268    1.4414   -3.8954 H         1 <0>         0.1196
     42 H15         8.2601    0.2539   -2.6114 H         1 <0>         0.1187
     43 H16         7.7830   -1.9663   -1.6596 H         1 <0>         0.1212
     44 H17         5.5700   -2.9959   -1.9854 H         1 <0>         0.1254
     45 H18        -0.1650   -5.0540   -5.0433 H         1 <0>         0.0701
     46 H19         0.7024   -3.5024   -4.9511 H         1 <0>         0.0635
     47 H20         1.5519   -5.0206   -4.5747 H         1 <0>         0.0675
     48 H21        -2.9588   -5.0608   -2.7052 H         1 <0>         0.0644
     49 H22        -2.0523   -5.2827   -4.2329 H         1 <0>         0.0640
     50 H23        -4.3054   -6.7181   -3.8101 H         1 <0>         0.0768
     51 H24        -2.8715   -7.5321   -4.5214 H         1 <0>         0.0701
     52 H25        -3.8017   -7.5160   -1.5946 H         1 <0>         0.0735
     53 H26        -3.2537   -8.9108   -2.5813 H         1 <0>         0.0734
     54 H27         2.1783   -3.9932   -2.6116 H         1 <0>         0.3611
@<TRIPOS>BOND
     1    1    2 1
     2    1   31 1
     3    1   32 1
     4    1   33 1
     5    2    3 1
     6    2   34 1
     7    2   35 1
     8    3    4 1
     9    4    5 2
    10    4    6 1
    11    6    7 1
    12    6    8 1
    13    6   16 1
    14    8    9 1
    15    8   36 1
    16    8   37 1
    17    9   10 1
    18    9   38 1
    19    9   39 1
    20   10   15 ar
    21   10   11 ar
    22   11   12 ar
    23   11   40 1
    24   12   13 ar
    25   12   41 1
    26   13   14 ar
    27   13   42 1
    28   14   15 ar
    29   14   43 1
    30   15   44 1
    31   16   17 1
    32   16   54 1
    33   17   18 1
    34   17   19 1
    35   17   20 1
    36   19   45 1
    37   19   46 1
    38   19   47 1
    39   20   21 2
    40   20   22 am
    41   22   26 1
    42   22   23 1
    43   23   24 1
    44   23   48 1
    45   23   49 1
    46   24   25 1
    47   24   50 1
    48   24   51 1
    49   25   26 1
    50   25   52 1
    51   25   53 1
    52   26   27 1
    53   26   28 1
    54   28   29 2
    55   28   30 1
@<TRIPOS>MOLECULE
ZINC03830747
   76    80     0     0     0
SMALL
USER_CHARGES

@<TRIPOS>ATOM
      1 C1         -0.0187    1.5258    0.0104 C.3       1 <0>        -0.1633
      2 C2          0.0021   -0.0041    0.0020 C.3       1 <0>        -0.1189
      3 C3         -1.4333   -0.5336    0.0129 C.3       1 <0>        -0.1022
      4 H1         -1.9703   -0.1110    0.8621 H         1 <0>         0.0956
      5 C4         -2.1356   -0.1315   -1.2866 C.3       1 <0>        -0.0065
      6 N1         -3.5096   -0.6473   -1.2769 N.4       1 <0>        -0.3777
      7 C5         -4.2237   -0.1961   -2.4786 C.3       1 <0>        -0.0032
      8 C6         -5.7161   -0.4740   -2.2926 C.3       1 <0>        -0.1015
      9 C7         -5.9228   -1.9046   -1.8642 C.ar      1 <0>        -0.0830
     10 C8         -7.1920   -2.4524   -1.9730 C.ar      1 <0>        -0.1667
     11 C9         -7.4243   -3.7607   -1.5880 C.ar      1 <0>         0.1321
     12 C10        -6.3763   -4.5285   -1.0881 C.ar      1 <0>         0.1178
     13 C11        -5.1120   -3.9775   -0.9822 C.ar      1 <0>        -0.1539
     14 C12        -4.8829   -2.6659   -1.3721 C.ar      1 <0>        -0.1249
     15 C13        -3.4897   -2.1112   -1.2496 C.3       1 <0>         0.0907
     16 H2         -2.8891   -2.4733   -2.0840 H         1 <0>         0.1393
     17 C14        -2.8487   -2.5910    0.0542 C.3       1 <0>        -0.1400
     18 C15        -1.4135   -2.0601    0.1298 C.3       1 <0>        -0.0982
     19 H3         -0.8266   -2.4802   -0.6871 H         1 <0>         0.0950
     20 C16        -0.7896   -2.4620    1.4677 C.3       1 <0>        -0.1085
     21 C17        -0.6558   -3.9849    1.5311 C.3       1 <0>         0.1363
     22 H4         -1.6298   -4.4393    1.3496 H         1 <0>         0.0468
     23 C18        -0.1678   -4.3846    2.8992 C.ar      1 <0>        -0.0837
     24 C19        -0.7098   -3.7440    4.0047 C.ar      1 <0>        -0.1714
     25 C20        -0.2965   -4.0801    5.2811 C.ar      1 <0>         0.0994
     26 C21         0.6690   -5.0675    5.4560 C.ar      1 <0>         0.1115
     27 C22         1.2079   -5.7018    4.3511 C.ar      1 <0>        -0.1757
     28 C23         0.7913   -5.3594    3.0729 C.ar      1 <0>        -0.0579
     29 C24         1.4166   -6.0714    1.9005 C.3       1 <0>        -0.0769
     30 C25         0.5612   -5.8690    0.6497 C.3       1 <0>         0.0558
     31 N2          0.2862   -4.4313    0.5001 N.3       1 <0>        -0.6759
     32 O1          1.0802   -5.4071    6.7070 O.3       1 <0>        -0.3043
     33 C26         2.0740   -6.4289    6.8082 C.3       1 <0>         0.0245
     34 O2         -0.8308   -3.4485    6.3604 O.3       1 <0>        -0.3029
     35 C27        -1.8160   -2.4459    6.1034 C.3       1 <0>         0.0274
     36 O3         -6.5947   -5.8149   -0.7049 O.3       1 <0>        -0.2954
     37 C28        -5.4719   -6.5415   -0.2016 C.3       1 <0>         0.0221
     38 O4         -8.6705   -4.2941   -1.6970 O.3       1 <0>        -0.2961
     39 C29        -9.6958   -3.4459   -2.2182 C.3       1 <0>         0.0210
     40 H5          1.0039    1.9031    0.0027 H         1 <0>         0.0683
     41 H6         -0.5459    1.8868   -0.8726 H         1 <0>         0.0525
     42 H7         -0.5289    1.8773    0.9072 H         1 <0>         0.0600
     43 H8          0.5123   -0.3556   -0.8948 H         1 <0>         0.0756
     44 H9          0.5293   -0.3651    0.8851 H         1 <0>         0.0889
     45 H10        -2.1557    0.9552   -1.3678 H         1 <0>         0.1358
     46 H11        -1.5961   -0.5501   -2.1361 H         1 <0>         0.1311
     47 H12        -4.0653    0.8732   -2.6185 H         1 <0>         0.1380
     48 H13        -3.8559   -0.7400   -3.3486 H         1 <0>         0.1321
     49 H14        -6.1164    0.1937   -1.5297 H         1 <0>         0.1031
     50 H15        -6.2369   -0.2993   -3.2341 H         1 <0>         0.1226
     51 H16        -8.0036   -1.8545   -2.3607 H         1 <0>         0.1471
     52 H17        -4.2982   -4.5721   -0.5941 H         1 <0>         0.1437
     53 H18        -3.4215   -2.2154    0.9021 H         1 <0>         0.0934
     54 H19        -2.8360   -3.6808    0.0749 H         1 <0>         0.1093
     55 H20         0.1964   -2.0065    1.5603 H         1 <0>         0.0933
     56 H21        -1.4263   -2.1190    2.2832 H         1 <0>         0.0749
     57 H22        -1.4592   -2.9785    3.8674 H         1 <0>         0.1330
     58 H23         1.9569   -6.4683    4.4843 H         1 <0>         0.1374
     59 H24         2.4151   -5.6710    1.7247 H         1 <0>         0.0866
     60 H25         1.4892   -7.1364    2.1208 H         1 <0>         0.0795
     61 H26         1.1004   -6.2318   -0.2254 H         1 <0>         0.0842
     62 H27        -0.3776   -6.4125    0.7562 H         1 <0>         0.0376
     63 H28         1.6951   -7.3496    6.3644 H         1 <0>         0.0564
     64 H29         2.9738   -6.1142    6.2795 H         1 <0>         0.0569
     65 H30         2.3112   -6.6024    7.8578 H         1 <0>         0.1049
     66 H31        -1.3809   -1.6579    5.4887 H         1 <0>         0.0524
     67 H32        -2.6602   -2.8923    5.5778 H         1 <0>         0.0519
     68 H33        -2.1586   -2.0226    7.0476 H         1 <0>         0.1032
     69 H34        -5.7830   -7.5510    0.0670 H         1 <0>         0.1110
     70 H35        -4.6983   -6.5915   -0.9679 H         1 <0>         0.0579
     71 H36        -5.0777   -6.0362    0.6801 H         1 <0>         0.0573
     72 H37        -9.4255   -3.1251   -3.2242 H         1 <0>         0.0606
     73 H38       -10.6378   -3.9934   -2.2522 H         1 <0>         0.1112
     74 H39        -9.8062   -2.5724   -1.5756 H         1 <0>         0.0602
     75 H40        -3.9904   -0.3038   -0.4590 H         1 <0>         0.4222
     76 H41        -0.0639   -4.2248   -0.4234 H         1 <0>         0.3395
@<TRIPOS>BOND
     1    1    2 1
     2    1   40 1
     3    1   41 1
     4    1   42 1
     5    2    3 1
     6    2   43 1
     7    2   44 1
     8    3    4 1
     9    3   18 1
    10    3    5 1
    11    5    6 1
    12    5   45 1
    13    5   46 1
    14    6   15 1
    15    6    7 1
    16    6   75 1
    17    7    8 1
    18    7   47 1
    19    7   48 1
    20    8    9 1
    21    8   49 1
    22    8   50 1
    23    9   14 ar
    24    9   10 ar
    25   10   11 ar
    26   10   51 1
    27   11   12 ar
    28   11   38 1
    29   12   13 ar
    30   12   36 1
    31   13   14 ar
    32   13   52 1
    33   14   15 1
    34   15   16 1
    35   15   17 1
    36   17   18 1
    37   17   53 1
    38   17   54 1
    39   18   19 1
    40   18   20 1
    41   20   21 1
    42   20   55 1
    43   20   56 1
    44   21   22 1
    45   21   31 1
    46   21   23 1
    47   23   28 ar
    48   23   24 ar
    49   24   25 ar
    50   24   57 1
    51   25   26 ar
    52   25   34 1
    53   26   27 ar
    54   26   32 1
    55   27   28 ar
    56   27   58 1
    57   28   29 1
    58   29   30 1
    59   29   59 1
    60   29   60 1
    61   30   31 1
    62   30   61 1
    63   30   62 1
    64   31   76 1
    65   32   33 1
    66   33   63 1
    67   33   64 1
    68   33   65 1
    69   34   35 1
    70   35   66 1
    71   35   67 1
    72   35   68 1
    73   36   37 1
    74   37   69 1
    75   37   70 1
    76   37   71 1
    77   38   39 1
    78   39   72 1
    79   39   73 1
    80   39   74 1
@<TRIPOS>MOLECULE
ZINC13537284
   40    43     0     0     0
SMALL
USER_CHARGES

@<TRIPOS>ATOM
      1 C1         -0.0184    1.5028    0.0103 C.3       1 <0>        -0.0814
      2 C2          0.0021   -0.0041    0.0020 C.2       1 <0>        -0.0178
      3 C3          0.0081   -0.8009   -1.0836 C.2       1 <0>        -0.0130
      4 N1          0.0272   -2.0745   -0.6635 N.2       1 <0>        -0.4675
      5 C4          0.0333   -2.0972    0.6413 C.2       1 <0>         0.1831
      6 N2          0.0241   -0.8258    1.0965 N.pl3     1 <0>        -0.5691
      7 C5         -0.0046   -0.3419   -2.5190 C.3       1 <0>         0.1961
      8 N3          1.3724   -0.1745   -2.9903 N.am      1 <0>        -0.6148
      9 C6          2.0196    1.1200   -2.8219 C.3       1 <0>         0.1242
     10 C7          3.4943    0.9956   -2.4385 C.3       1 <0>        -0.0729
     11 C8          4.1495   -0.0208   -3.3404 C.2       1 <0>         0.1159
     12 C9          3.4259   -1.0689   -3.8691 C.2       1 <0>        -0.2311
     13 C10         4.3411   -1.8450   -4.6801 C.ar      1 <0>        -0.0526
     14 C11         4.1922   -2.9993   -5.4499 C.ar      1 <0>        -0.0630
     15 C12         5.3184   -3.4664   -6.1041 C.ar      1 <0>        -0.1400
     16 C13         6.5410   -2.8242   -6.0050 C.ar      1 <0>        -0.1031
     17 C14         6.7116   -1.6783   -5.2476 C.ar      1 <0>        -0.1242
     18 C15         5.5937   -1.1868   -4.5780 C.ar      1 <0>         0.0806
     19 N4          5.4284   -0.0976   -3.7623 N.pl3     1 <0>        -0.4549
     20 C16         6.4881    0.8473   -3.4011 C.3       1 <0>         0.0690
     21 C17         1.9992   -1.2295   -3.5614 C.2       1 <0>         0.6001
     22 O1          1.4070   -2.2624   -3.8121 O.2       1 <0>        -0.5154
     23 H1          1.0042    1.8801    0.0026 H         1 <0>         0.0729
     24 H2         -0.5455    1.8639   -0.8728 H         1 <0>         0.0836
     25 H3         -0.5286    1.8543    0.9071 H         1 <0>         0.0675
     26 H4          0.0476   -2.9856    1.2553 H         1 <0>         0.2078
     27 H5         -0.5111   -1.0859   -3.1339 H         1 <0>         0.1009
     28 H6         -0.5317    0.6093   -2.5917 H         1 <0>         0.0891
     29 H7          1.9446    1.6755   -3.7567 H         1 <0>         0.0690
     30 H8          1.4987    1.6754   -2.0419 H         1 <0>         0.0906
     31 H9          3.9855    1.9611   -2.5591 H         1 <0>         0.0975
     32 H10         3.5756    0.6697   -1.4016 H         1 <0>         0.0932
     33 H11         3.2415   -3.5052   -5.5310 H         1 <0>         0.1379
     34 H12         5.2417   -4.3577   -6.7092 H         1 <0>         0.1225
     35 H13         7.3890   -3.2303   -6.5362 H         1 <0>         0.1235
     36 H14         7.6707   -1.1868   -5.1783 H         1 <0>         0.1273
     37 H15         6.9860    0.5053   -2.4938 H         1 <0>         0.0758
     38 H16         7.2131    0.9077   -4.2127 H         1 <0>         0.0879
     39 H17         6.0535    1.8318   -3.2281 H         1 <0>         0.0866
     40 H18         0.0299   -0.5470    2.0255 H         1 <0>         0.4184
@<TRIPOS>BOND
     1    1    2 1
     2    1   23 1
     3    1   24 1
     4    1   25 1
     5    2    6 1
     6    2    3 2
     7    3    4 1
     8    3    7 1
     9    4    5 2
    10    5    6 1
    11    5   26 1
    12    6   40 1
    13    7    8 1
    14    7   27 1
    15    7   28 1
    16    8   21 am
    17    8    9 1
    18    9   10 1
    19    9   29 1
    20    9   30 1
    21   10   11 1
    22   10   31 1
    23   10   32 1
    24   11   19 1
    25   11   12 2
    26   12   13 1
    27   12   21 1
    28   13   18 ar
    29   13   14 ar
    30   14   15 ar
    31   14   33 1
    32   15   16 ar
    33   15   34 1
    34   16   17 ar
    35   16   35 1
    36   17   18 ar
    37   17   36 1
    38   18   19 1
    39   19   20 1
    40   20   37 1
    41   20   38 1
    42   20   39 1
    43   21   22 2
@<TRIPOS>MOLECULE
ZINC03830746
   76    80     0     0     0
SMALL
USER_CHARGES

@<TRIPOS>ATOM
      1 C1         -0.0187    1.5258    0.0104 C.3       1 <0>        -0.1652
      2 C2          0.0021   -0.0041    0.0020 C.3       1 <0>        -0.1386
      3 C3         -1.4333   -0.5336    0.0129 C.3       1 <0>        -0.1046
      4 H1         -1.9863   -0.1020   -0.8213 H         1 <0>         0.1242
      5 C4         -2.1107   -0.1456    1.3297 C.3       1 <0>        -0.0052
      6 N1         -1.3685   -0.7342    2.4507 N.4       1 <0>        -0.3790
      7 C5         -1.9557   -0.2996    3.7250 C.3       1 <0>        -0.0040
      8 C6         -0.9906   -0.6603    4.8553 C.3       1 <0>        -0.1020
      9 C7         -0.5843   -2.1077    4.7415 C.ar      1 <0>        -0.0833
     10 C8          0.0001   -2.7204    5.8397 C.ar      1 <0>        -0.1665
     11 C9          0.3907   -4.0460    5.7751 C.ar      1 <0>         0.1322
     12 C10         0.1950   -4.7658    4.5998 C.ar      1 <0>         0.1179
     13 C11        -0.3897   -4.1503    3.5077 C.ar      1 <0>        -0.1538
     14 C12        -0.7818   -2.8213    3.5775 C.ar      1 <0>        -0.1249
     15 C13        -1.4227   -2.1952    2.3688 C.3       1 <0>         0.0906
     16 H2         -2.4652   -2.5091    2.3175 H         1 <0>         0.1400
     17 C14        -0.7114   -2.6642    1.0979 C.3       1 <0>        -0.1423
     18 C15        -1.4159   -2.0588   -0.1208 C.3       1 <0>        -0.0963
     19 H3         -2.4389   -2.4314   -0.1722 H         1 <0>         0.0957
     20 C16        -0.6634   -2.4516   -1.3937 C.3       1 <0>        -0.1075
     21 C17        -0.7531   -3.9659   -1.5925 C.3       1 <0>         0.1359
     22 H4         -0.3879   -4.4685   -0.6969 H         1 <0>         0.0472
     23 C18         0.0995   -4.3644   -2.7689 C.ar      1 <0>        -0.0836
     24 C19         1.3481   -3.7745   -2.9068 C.ar      1 <0>        -0.1714
     25 C20         2.1684   -4.1118   -3.9681 C.ar      1 <0>         0.0994
     26 C21         1.7372   -5.0490   -4.9026 C.ar      1 <0>         0.1115
     27 C22         0.4910   -5.6328   -4.7622 C.ar      1 <0>        -0.1755
     28 C23        -0.3287   -5.2894   -3.6970 C.ar      1 <0>        -0.0578
     29 C24        -1.6823   -5.9448   -3.5939 C.3       1 <0>        -0.0771
     30 C25        -2.2436   -5.7653   -2.1832 C.3       1 <0>         0.0558
     31 N2         -2.1516   -4.3418   -1.8221 N.3       1 <0>        -0.6762
     32 O1          2.5373   -5.3895   -5.9482 O.3       1 <0>        -0.3043
     33 C26         2.0275   -6.3582   -6.8668 C.3       1 <0>         0.0245
     34 O2          3.3907   -3.5299   -4.0983 O.3       1 <0>        -0.3028
     35 C27         3.7651   -2.5770   -3.1014 C.3       1 <0>         0.0274
     36 O3          0.5775   -6.0687    4.5254 O.3       1 <0>        -0.2953
     37 C28         0.3451   -6.7434    3.2873 C.3       1 <0>         0.0220
     38 O4          0.9636   -4.6429    6.8544 O.3       1 <0>        -0.2960
     39 C29         1.1328   -3.8413    8.0253 C.3       1 <0>         0.0210
     40 H5          1.0039    1.9031    0.0027 H         1 <0>         0.0690
     41 H6         -0.5459    1.8868   -0.8726 H         1 <0>         0.0700
     42 H7         -0.5289    1.8773    0.9072 H         1 <0>         0.0507
     43 H8          0.5123   -0.3556   -0.8948 H         1 <0>         0.0944
     44 H9          0.5293   -0.3651    0.8851 H         1 <0>         0.0549
     45 H10        -2.1183    0.9399    1.4287 H         1 <0>         0.1358
     46 H11        -3.1348   -0.5188    1.3357 H         1 <0>         0.1324
     47 H12        -2.1114    0.7791    3.7071 H         1 <0>         0.1378
     48 H13        -2.9078   -0.8068    3.8810 H         1 <0>         0.1330
     49 H14        -0.1043   -0.0293    4.7898 H         1 <0>         0.1024
     50 H15        -1.4801   -0.4962    5.8153 H         1 <0>         0.1232
     51 H16         0.1513   -2.1597    6.7502 H         1 <0>         0.1472
     52 H17        -0.5418   -4.7076    2.5952 H         1 <0>         0.1439
     53 H18         0.3277   -2.3356    1.1191 H         1 <0>         0.0944
     54 H19        -0.7502   -3.7519    1.0385 H         1 <0>         0.1089
     55 H20        -1.1093   -1.9457   -2.2501 H         1 <0>         0.0903
     56 H21         0.3825   -2.1584   -1.3027 H         1 <0>         0.0775
     57 H22         1.6815   -3.0479   -2.1807 H         1 <0>         0.1326
     58 H23         0.1544   -6.3604   -5.4859 H         1 <0>         0.1375
     59 H24        -2.3612   -5.4883   -4.3142 H         1 <0>         0.0866
     60 H25        -1.5869   -7.0084   -3.8127 H         1 <0>         0.0796
     61 H26        -3.2862   -6.0823   -2.1608 H         1 <0>         0.0843
     62 H27        -1.6618   -6.3603   -1.4792 H         1 <0>         0.0377
     63 H28         1.8250   -7.2893   -6.3376 H         1 <0>         0.0564
     64 H29         1.1053   -5.9858   -7.3128 H         1 <0>         0.0569
     65 H30         2.7633   -6.5382   -7.6505 H         1 <0>         0.1049
     66 H31         3.0487   -1.7555   -3.0968 H         1 <0>         0.0521
     67 H32         3.7725   -3.0582   -2.1234 H         1 <0>         0.0520
     68 H33         4.7597   -2.1905   -3.3237 H         1 <0>         0.1032
     69 H34         0.6955   -7.7727    3.3631 H         1 <0>         0.1110
     70 H35        -0.7221   -6.7384    3.0656 H         1 <0>         0.0580
     71 H36         0.8845   -6.2338    2.4890 H         1 <0>         0.0573
     72 H37         0.1600   -3.4885    8.3677 H         1 <0>         0.0606
     73 H38         1.5997   -4.4374    8.8094 H         1 <0>         0.1112
     74 H39         1.7677   -2.9866    7.7919 H         1 <0>         0.0602
     75 H40        -0.4066   -0.4322    2.4107 H         1 <0>         0.4207
     76 H41        -2.7186   -4.1372   -1.0130 H         1 <0>         0.3396
@<TRIPOS>BOND
     1    1    2 1
     2    1   40 1
     3    1   41 1
     4    1   42 1
     5    2    3 1
     6    2   43 1
     7    2   44 1
     8    3    4 1
     9    3   18 1
    10    3    5 1
    11    5    6 1
    12    5   45 1
    13    5   46 1
    14    6   15 1
    15    6    7 1
    16    6   75 1
    17    7    8 1
    18    7   47 1
    19    7   48 1
    20    8    9 1
    21    8   49 1
    22    8   50 1
    23    9   14 ar
    24    9   10 ar
    25   10   11 ar
    26   10   51 1
    27   11   12 ar
    28   11   38 1
    29   12   13 ar
    30   12   36 1
    31   13   14 ar
    32   13   52 1
    33   14   15 1
    34   15   16 1
    35   15   17 1
    36   17   18 1
    37   17   53 1
    38   17   54 1
    39   18   19 1
    40   18   20 1
    41   20   21 1
    42   20   55 1
    43   20   56 1
    44   21   22 1
    45   21   31 1
    46   21   23 1
    47   23   28 ar
    48   23   24 ar
    49   24   25 ar
    50   24   57 1
    51   25   26 ar
    52   25   34 1
    53   26   27 ar
    54   26   32 1
    55   27   28 ar
    56   27   58 1
    57   28   29 1
    58   29   30 1
    59   29   59 1
    60   29   60 1
    61   30   31 1
    62   30   61 1
    63   30   62 1
    64   31   76 1
    65   32   33 1
    66   33   63 1
    67   33   64 1
    68   33   65 1
    69   34   35 1
    70   35   66 1
    71   35   67 1
    72   35   68 1
    73   36   37 1
    74   37   69 1
    75   37   70 1
    76   37   71 1
    77   38   39 1
    78   39   72 1
    79   39   73 1
    80   39   74 1
@<TRIPOS>MOLECULE
ZINC03941829
   74    76     0     0     0
SMALL
USER_CHARGES

@<TRIPOS>ATOM
      1 C1          0.3936    1.5533   -0.4369 C.3       1 <0>        -0.1452
      2 C2          0.2096    0.1074    0.0282 C.3       1 <0>        -0.1224
      3 C3          0.9952   -0.1161    1.3220 C.3       1 <0>        -0.1482
      4 C4         -1.2752   -0.1623    0.2801 C.3       1 <0>         0.1233
      5 N1         -1.4688   -1.5820    0.5855 N.pl3     1 <0>        -0.9775
      6 C5         -1.3227   -2.0616    1.9620 C.3       1 <0>         0.1089
      7 C6         -2.6331   -1.8418    2.7205 C.3       1 <0>         0.1383
      8 H1         -2.9198   -0.7923    2.6541 H         1 <0>         0.0757
      9 C7         -2.4432   -2.2267    4.1891 C.3       1 <0>         0.1610
     10 H2         -1.6022   -1.6713    4.6043 H         1 <0>         0.1010
     11 C8         -2.1633   -3.7274    4.2909 C.3       1 <0>        -0.0963
     12 C9         -1.8551   -4.0849    5.7221 C.ar      1 <0>        -0.0544
     13 C10        -0.5517   -4.0402    6.1803 C.ar      1 <0>        -0.1073
     14 C11        -0.2689   -4.3682    7.4931 C.ar      1 <0>        -0.1156
     15 C12        -1.2897   -4.7404    8.3478 C.ar      1 <0>        -0.1271
     16 C13        -2.5932   -4.7843    7.8897 C.ar      1 <0>        -0.1157
     17 C14        -2.8765   -4.4522    6.5781 C.ar      1 <0>        -0.1093
     18 N2         -3.6594   -1.9047    4.9396 N.am      1 <0>        -0.6969
     19 C15        -3.5912   -1.6708    6.2651 C.2       1 <0>         0.6469
     20 O1         -2.5210   -1.7270    6.8377 O.2       1 <0>        -0.5650
     21 O2         -4.7090   -1.3748    6.9548 O.3       1 <0>        -0.3467
     22 C16        -4.5630   -1.1387    8.3566 C.3       1 <0>         0.0768
     23 H3         -3.5756   -0.7340    8.5793 H         1 <0>         0.1010
     24 C17        -5.6786   -0.1916    8.8767 C.3       1 <0>        -0.1559
     25 C18        -5.7844   -0.6456   10.3544 C.3       1 <0>         0.0538
     26 O3         -5.5788   -2.0670   10.3258 O.3       1 <0>        -0.3798
     27 C19        -4.8216   -2.4305    9.1613 C.3       1 <0>         0.0361
     28 O4         -3.6588   -2.6531    2.1443 O.3       1 <0>        -0.7293
     29 P1         -5.0074   -2.0429    1.5111 P.3       1 <0>         2.1877
     30 O5         -4.6431   -0.9977    0.4331 O.2       1 <0>        -1.0896
     31 O6         -5.8692   -3.2265    0.8413 O.3       1 <0>        -0.8916
     32 O7         -5.8388   -1.3667    2.6239 O.3       1 <0>        -1.1023
     33 S1         -1.8527   -2.6445   -0.6252 S.o2      1 <0>         2.6880
     34 O8         -2.5059   -3.7451   -0.0077 O.2       1 <0>        -0.9401
     35 O9         -2.4593   -1.8808   -1.6586 O.2       1 <0>        -0.9391
     36 C20        -0.3365   -3.2605   -1.2780 C.ar      1 <0>        -0.7341
     37 C21         0.2825   -2.6013   -2.3243 C.ar      1 <0>         0.0266
     38 C22         1.4710   -3.0814   -2.8384 C.ar      1 <0>        -0.2182
     39 C23         2.0446   -4.2278   -2.3032 C.ar      1 <0>         0.2588
     40 C24         1.4202   -4.8875   -1.2522 C.ar      1 <0>        -0.2185
     41 C25         0.2348   -4.3987   -0.7392 C.ar      1 <0>         0.0264
     42 N3          3.2463   -4.7163   -2.8210 N.pl3     1 <0>        -0.8718
     43 H4          1.4515    1.7454   -0.6164 H         1 <0>         0.0524
     44 H5         -0.1660    1.7125   -1.3586 H         1 <0>         0.0589
     45 H6          0.0266    2.2321    0.3329 H         1 <0>         0.0580
     46 H7          0.5767   -0.5714   -0.7416 H         1 <0>         0.0689
     47 H8          0.5377    0.4570    2.1284 H         1 <0>         0.0571
     48 H9          0.9820   -1.1758    1.5766 H         1 <0>         0.0591
     49 H10         2.0254    0.2114    1.1826 H         1 <0>         0.0493
     50 H11        -1.6162    0.4403    1.1220 H         1 <0>         0.0841
     51 H12        -1.8481    0.0993   -0.6096 H         1 <0>         0.1022
     52 H13        -1.0822   -3.1247    1.9527 H         1 <0>         0.0928
     53 H14        -0.5209   -1.5120    2.4551 H         1 <0>         0.0970
     54 H15        -3.0395   -4.2838    3.9580 H         1 <0>         0.0919
     55 H16        -1.3107   -3.9816    3.6612 H         1 <0>         0.0857
     56 H17         0.2458   -3.7494    5.5126 H         1 <0>         0.1141
     57 H18         0.7495   -4.3339    7.8509 H         1 <0>         0.1117
     58 H19        -1.0687   -4.9973    9.3732 H         1 <0>         0.1107
     59 H20        -3.3906   -5.0754    8.5574 H         1 <0>         0.1112
     60 H21        -3.8954   -4.4828    6.2213 H         1 <0>         0.1109
     61 H22        -4.5138   -1.8598    4.4825 H         1 <0>         0.4268
     62 H23        -5.3719    0.8520    8.8074 H         1 <0>         0.0926
     63 H24        -6.6157   -0.3599    8.3461 H         1 <0>         0.0955
     64 H25        -5.0124   -0.1637   10.9544 H         1 <0>         0.0636
     65 H26        -6.7728   -0.4142   10.7515 H         1 <0>         0.0916
     66 H27        -5.3912   -3.1355    8.5558 H         1 <0>         0.0797
     67 H28        -3.8727   -2.8780    9.4574 H         1 <0>         0.0807
     68 H29        -0.1642   -1.7103   -2.7402 H         1 <0>         0.1375
     69 H30         1.9537   -2.5664   -3.6558 H         1 <0>         0.1266
     70 H31         1.8634   -5.7792   -0.8341 H         1 <0>         0.1267
     71 H32        -0.2490   -4.9086    0.0808 H         1 <0>         0.1385
     72 H33         3.6813   -4.2550   -3.5551 H         1 <0>         0.4003
     73 H34         3.6460   -5.5169   -2.4465 H         1 <0>         0.4004
     74 H35        -6.6974   -2.9309    0.4391 H         1 <0>         0.4112
@<TRIPOS>BOND
     1    1    2 1
     2    1   43 1
     3    1   44 1
     4    1   45 1
     5    2    3 1
     6    2    4 1
     7    2   46 1
     8    3   47 1
     9    3   48 1
    10    3   49 1
    11    4    5 1
    12    4   50 1
    13    4   51 1
    14    5    6 1
    15    5   33 1
    16    6    7 1
    17    6   52 1
    18    6   53 1
    19    7    8 1
    20    7    9 1
    21    7   28 1
    22    9   10 1
    23    9   11 1
    24    9   18 1
    25   11   12 1
    26   11   54 1
    27   11   55 1
    28   12   17 ar
    29   12   13 ar
    30   13   14 ar
    31   13   56 1
    32   14   15 ar
    33   14   57 1
    34   15   16 ar
    35   15   58 1
    36   16   17 ar
    37   16   59 1
    38   17   60 1
    39   18   19 am
    40   18   61 1
    41   19   20 2
    42   19   21 1
    43   21   22 1
    44   22   23 1
    45   22   27 1
    46   22   24 1
    47   24   25 1
    48   24   62 1
    49   24   63 1
    50   25   26 1
    51   25   64 1
    52   25   65 1
    53   26   27 1
    54   27   66 1
    55   27   67 1
    56   28   29 1
    57   29   30 2
    58   29   31 1
    59   29   32 1
    60   31   74 1
    61   33   34 2
    62   33   35 2
    63   33   36 1
    64   36   41 ar
    65   36   37 ar
    66   37   38 ar
    67   37   68 1
    68   38   39 ar
    69   38   69 1
    70   39   40 ar
    71   39   42 1
    72   40   41 ar
    73   40   70 1
    74   41   71 1
    75   42   72 1
    76   42   73 1
@<TRIPOS>MOLECULE
ZINC02510358
   30    32     0     0     0
SMALL
USER_CHARGES

@<TRIPOS>ATOM
      1 C1          0.0072    1.4200   -0.0958 C.ar      1 <0>        -0.1269
      2 C2          0.2532    0.4874    0.8945 C.ar      1 <0>        -0.1240
      3 C3          1.4518   -0.2011    0.9132 C.ar      1 <0>        -0.0982
      4 C4          2.4041    0.0427   -0.0586 C.ar      1 <0>        -0.0599
      5 C5          2.1578    0.9746   -1.0494 C.ar      1 <0>        -0.1066
      6 C6          0.9598    1.6641   -1.0673 C.ar      1 <0>        -0.1281
      7 C7          3.7112   -0.7071   -0.0376 C.3       1 <0>         0.1720
      8 C8          4.2777   -0.7540    1.3673 C.2       1 <0>         0.4772
      9 O1          3.7118   -1.3185    2.4464 O.3       1 <0>        -0.6326
     10 N1          5.4259   -0.1355    1.3177 N.2       1 <0>        -0.6710
     11 C9          5.7121    0.3177    0.0907 C.2       1 <0>         0.6641
     12 O2          6.7296    0.9233   -0.1901 O.2       1 <0>        -0.5916
     13 N2          4.7420    0.0240   -0.7966 N.am      1 <0>        -0.7637
     14 C10         3.5324   -2.0983   -0.5886 C.ar      1 <0>        -0.0572
     15 C11         4.3008   -2.5227   -1.6565 C.ar      1 <0>        -0.1097
     16 C12         4.1368   -3.7989   -2.1620 C.ar      1 <0>        -0.1261
     17 C13         3.2048   -4.6507   -1.5993 C.ar      1 <0>        -0.1283
     18 C14         2.4371   -4.2266   -0.5309 C.ar      1 <0>        -0.1235
     19 C15         2.6041   -2.9519   -0.0226 C.ar      1 <0>        -0.0919
     20 H1         -0.9310    1.9546   -0.1130 H         1 <0>         0.1164
     21 H2         -0.4909    0.2970    1.6538 H         1 <0>         0.1205
     22 H3          1.6442   -0.9291    1.6874 H         1 <0>         0.1454
     23 H4          2.9021    1.1656   -1.8082 H         1 <0>         0.1165
     24 H5          0.7675    2.3925   -1.8412 H         1 <0>         0.1173
     25 H6          4.7252    0.2476   -1.7404 H         1 <0>         0.4036
     26 H7          5.0290   -1.8572   -2.0961 H         1 <0>         0.1212
     27 H8          4.7367   -4.1302   -2.9968 H         1 <0>         0.1177
     28 H9          3.0762   -5.6475   -1.9947 H         1 <0>         0.1165
     29 H10         1.7087   -4.8920   -0.0915 H         1 <0>         0.1200
     30 H11         2.0069   -2.6219    0.8145 H         1 <0>         0.1311
@<TRIPOS>BOND
     1    1    6 ar
     2    1    2 ar
     3    1   20 1
     4    2    3 ar
     5    2   21 1
     6    3    4 ar
     7    3   22 1
     8    4    5 ar
     9    4    7 1
    10    5    6 ar
    11    5   23 1
    12    6   24 1
    13    7   13 1
    14    7    8 1
    15    7   14 1
    16    8    9 1
    17    8   10 2
    18   10   11 1
    19   11   12 2
    20   11   13 am
    21   13   25 1
    22   14   19 ar
    23   14   15 ar
    24   15   16 ar
    25   15   26 1
    26   16   17 ar
    27   16   27 1
    28   17   18 ar
    29   17   28 1
    30   18   19 ar
    31   18   29 1
    32   19   30 1
@<TRIPOS>MOLECULE
ZINC03869855
   35    38     0     0     0
SMALL
USER_CHARGES

@<TRIPOS>ATOM
      1 C1         -0.0166    1.3738    0.0096 C.ar      1 <0>        -0.1823
      2 C2          1.1716    2.0894    0.0021 C.ar      1 <0>        -0.0923
      3 C3          2.3858    1.4365   -0.0134 C.ar      1 <0>        -0.1660
      4 C4          2.4258    0.0477   -0.0212 C.ar      1 <0>         0.1630
      5 C5          1.2233   -0.6749   -0.0132 C.ar      1 <0>        -0.2040
      6 C6          0.0021   -0.0041    0.0020 C.ar      1 <0>        -0.0461
      7 C7          1.2898   -2.1506   -0.0218 C.2       1 <0>         0.3943
      8 O1          0.2773   -2.8315   -0.0157 O.2       1 <0>        -0.5101
      9 C8          2.5710   -2.7411   -0.0377 C.2       1 <0>        -0.4518
     10 C9          3.6745   -1.9488   -0.0444 C.2       1 <0>         0.4200
     11 O2          3.6033   -0.6118   -0.0368 O.3       1 <0>        -0.2846
     12 O3          4.8914   -2.5327   -0.0597 O.3       1 <0>        -0.6146
     13 C10         2.7144   -4.2413   -0.0468 C.3       1 <0>         0.1118
     14 C11         2.6533   -4.7603    1.3666 C.2       1 <0>        -0.4517
     15 C12         3.8164   -4.7855    2.1646 C.2       1 <0>         0.3942
     16 O4          4.8888   -4.3919    1.7357 O.2       1 <0>        -0.5097
     17 C13         3.6840   -5.3070    3.5403 C.ar      1 <0>        -0.2040
     18 C14         4.7783   -5.3694    4.4007 C.ar      1 <0>        -0.0461
     19 C15         4.6125   -5.8623    5.6768 C.ar      1 <0>        -0.1823
     20 C16         3.3652   -6.2943    6.1031 C.ar      1 <0>        -0.0923
     21 C17         2.2753   -6.2373    5.2607 C.ar      1 <0>        -0.1660
     22 C18         2.4218   -5.7432    3.9704 C.ar      1 <0>         0.1630
     23 O5          1.3683   -5.6776    3.1294 O.3       1 <0>        -0.2846
     24 C19         1.4765   -5.2018    1.8825 C.2       1 <0>         0.4200
     25 O6          0.3736   -5.1641    1.1054 O.3       1 <0>        -0.6148
     26 H1         -0.9603    1.8987    0.0259 H         1 <0>         0.1135
     27 H2          1.1453    3.1691    0.0081 H         1 <0>         0.1171
     28 H3          3.3047    2.0039   -0.0198 H         1 <0>         0.1237
     29 H4         -0.9237   -0.5603    0.0078 H         1 <0>         0.1270
     30 H5          1.9051   -4.6801   -0.6304 H         1 <0>         0.0372
     31 H6          3.6717   -4.5120   -0.4922 H         1 <0>         0.0371
     32 H7          5.7500   -5.0340    4.0695 H         1 <0>         0.1270
     33 H8          5.4573   -5.9129    6.3478 H         1 <0>         0.1135
     34 H9          3.2467   -6.6795    7.1051 H         1 <0>         0.1171
     35 H10         1.3089   -6.5767    5.6031 H         1 <0>         0.1237
@<TRIPOS>BOND
     1    1    6 ar
     2    1    2 ar
     3    1   26 1
     4    2    3 ar
     5    2   27 1
     6    3    4 ar
     7    3   28 1
     8    4   11 1
     9    4    5 ar
    10    5    6 ar
    11    5    7 1
    12    6   29 1
    13    7    8 2
    14    7    9 1
    15    9   10 2
    16    9   13 1
    17   10   11 1
    18   10   12 1
    19   13   14 1
    20   13   30 1
    21   13   31 1
    22   14   24 2
    23   14   15 1
    24   15   16 2
    25   15   17 1
    26   17   22 ar
    27   17   18 ar
    28   18   19 ar
    29   18   32 1
    30   19   20 ar
    31   19   33 1
    32   20   21 ar
    33   20   34 1
    34   21   22 ar
    35   21   35 1
    36   22   23 1
    37   23   24 1
    38   24   25 1
@<TRIPOS>MOLECULE
ZINC03869855
   37    40     0     0     0
SMALL
USER_CHARGES

@<TRIPOS>ATOM
      1 C1         -0.0166    1.3738    0.0096 C.ar      1 <0>        -0.1459
      2 C2          1.1716    2.0894    0.0021 C.ar      1 <0>        -0.0609
      3 C3          2.3858    1.4365   -0.0134 C.ar      1 <0>        -0.1381
      4 C4          2.4258    0.0477   -0.0212 C.ar      1 <0>         0.1515
      5 C5          1.2233   -0.6749   -0.0132 C.ar      1 <0>        -0.2164
      6 C6          0.0021   -0.0041    0.0020 C.ar      1 <0>        -0.0323
      7 C7          1.2898   -2.1506   -0.0218 C.2       1 <0>         0.4339
      8 O1          0.2773   -2.8315   -0.0157 O.2       1 <0>        -0.4589
      9 C8          2.5710   -2.7411   -0.0377 C.2       1 <0>        -0.3281
     10 C9          3.6745   -1.9488   -0.0444 C.2       1 <0>         0.3639
     11 O2          3.6033   -0.6118   -0.0368 O.3       1 <0>        -0.2626
     12 O3          4.8914   -2.5327   -0.0597 O.3       1 <0>        -0.3881
     13 C10         2.7144   -4.2413   -0.0468 C.3       1 <0>         0.0441
     14 C11         2.6533   -4.7603    1.3666 C.2       1 <0>        -0.3278
     15 C12         3.8164   -4.7855    2.1646 C.2       1 <0>         0.4339
     16 O4          4.8888   -4.3919    1.7357 O.2       1 <0>        -0.4589
     17 C13         3.6840   -5.3070    3.5403 C.ar      1 <0>        -0.2164
     18 C14         4.7783   -5.3694    4.4007 C.ar      1 <0>        -0.0323
     19 C15         4.6125   -5.8623    5.6768 C.ar      1 <0>        -0.1459
     20 C16         3.3652   -6.2943    6.1031 C.ar      1 <0>        -0.0609
     21 C17         2.2753   -6.2373    5.2607 C.ar      1 <0>        -0.1381
     22 C18         2.4218   -5.7432    3.9704 C.ar      1 <0>         0.1515
     23 O5          1.3683   -5.6776    3.1294 O.3       1 <0>        -0.2626
     24 C19         1.4765   -5.2018    1.8825 C.2       1 <0>         0.3638
     25 O6          0.3736   -5.1641    1.1054 O.3       1 <0>        -0.3882
     26 H1         -0.9603    1.8987    0.0259 H         1 <0>         0.1371
     27 H2          1.1453    3.1691    0.0081 H         1 <0>         0.1419
     28 H3          3.3047    2.0039   -0.0198 H         1 <0>         0.1432
     29 H4         -0.9237   -0.5603    0.0078 H         1 <0>         0.1433
     30 H5          1.9051   -4.6801   -0.6304 H         1 <0>         0.0859
     31 H6          3.6717   -4.5120   -0.4922 H         1 <0>         0.0859
     32 H7          5.7500   -5.0340    4.0695 H         1 <0>         0.1433
     33 H8          5.4573   -5.9129    6.3478 H         1 <0>         0.1372
     34 H9          3.2467   -6.6795    7.1051 H         1 <0>         0.1419
     35 H10         1.3089   -6.5767    5.6031 H         1 <0>         0.1432
     36 H11        -0.4250   -5.4938    1.5396 H         1 <0>         0.4085
     37 H12         5.6282   -1.9064   -0.0636 H         1 <0>         0.4085
@<TRIPOS>BOND
     1    1    6 ar
     2    1    2 ar
     3    1   26 1
     4    2    3 ar
     5    2   27 1
     6    3    4 ar
     7    3   28 1
     8    4   11 1
     9    4    5 ar
    10    5    6 ar
    11    5    7 1
    12    6   29 1
    13    7    8 2
    14    7    9 1
    15    9   10 2
    16    9   13 1
    17   10   11 1
    18   10   12 1
    19   12   37 1
    20   13   14 1
    21   13   30 1
    22   13   31 1
    23   14   24 2
    24   14   15 1
    25   15   16 2
    26   15   17 1
    27   17   22 ar
    28   17   18 ar
    29   18   19 ar
    30   18   32 1
    31   19   20 ar
    32   19   33 1
    33   20   21 ar
    34   20   34 1
    35   21   22 ar
    36   21   35 1
    37   22   23 1
    38   23   24 1
    39   24   25 1
    40   25   36 1
@<TRIPOS>MOLECULE
ZINC00606383
   42    45     0     0     0
SMALL
USER_CHARGES

@<TRIPOS>ATOM
      1 C1         -0.0167    1.3840    0.0097 C.ar      1 <0>        -0.1072
      2 C2          1.1323    2.1108    0.0026 C.ar      1 <0>        -0.0704
      3 C3          2.3939    1.4700   -0.0134 C.ar      1 <0>        -0.0667
      4 C4          3.7202    2.0695   -0.0229 C.2       1 <0>        -0.1133
      5 C5          4.8000    1.2748   -0.0376 C.2       1 <0>        -0.1248
      6 S1          4.1082   -0.3681   -0.0398 S.3       1 <0>         0.0590
      7 C6          2.3863    0.0584   -0.0209 C.ar      1 <0>        -0.1151
      8 C7          1.2140   -0.6681   -0.0139 C.ar      1 <0>         0.0048
      9 C8          0.0021   -0.0041    0.0020 C.ar      1 <0>        -0.0843
     10 Cl1         1.2605   -2.4034   -0.0241 Cl        1 <0>        -0.0532
     11 C9          3.8781    3.5682   -0.0167 C.3       1 <0>         0.1046
     12 O1          5.2678    3.9008   -0.0282 O.3       1 <0>        -0.3675
     13 C10         5.5293    5.3057   -0.0235 C.3       1 <0>         0.1211
     14 H1          4.7257    5.8231    0.5006 H         1 <0>         0.0893
     15 C11         5.6090    5.8144   -1.4642 C.3       1 <0>         0.0880
     16 N1          4.3013    5.6657   -2.1077 N.pl3     1 <0>        -0.4618
     17 C12         3.8566    4.5721   -2.8004 C.2       1 <0>        -0.0477
     18 C13         2.6089    4.8572   -3.2193 C.2       1 <0>        -0.0273
     19 N2          2.3002    6.0912   -2.7940 N.2       1 <0>        -0.4876
     20 C14         3.3073    6.5797   -2.1231 C.2       1 <0>         0.1803
     21 C15         6.8376    5.5708    0.6760 C.ar      1 <0>        -0.0826
     22 C16         7.8068    4.5863    0.7253 C.ar      1 <0>        -0.0628
     23 C17         9.0068    4.8287    1.3665 C.ar      1 <0>        -0.1047
     24 C18         9.2390    6.0574    1.9593 C.ar      1 <0>        -0.0174
     25 C19         8.2699    7.0429    1.9098 C.ar      1 <0>        -0.1008
     26 C20         7.0706    6.8013    1.2636 C.ar      1 <0>        -0.0165
     27 Cl2         5.8560    8.0398    1.1958 Cl        1 <0>        -0.0498
     28 Cl3        10.7462    6.3615    2.7652 Cl        1 <0>        -0.0489
     29 H2         -0.9662    1.8985    0.0261 H         1 <0>         0.1394
     30 H3          1.0816    3.1896    0.0089 H         1 <0>         0.1292
     31 H4          5.8412    1.5618   -0.0460 H         1 <0>         0.1950
     32 H5         -0.9233   -0.5608    0.0085 H         1 <0>         0.1461
     33 H6          3.3968    3.9879   -0.9001 H         1 <0>         0.0878
     34 H7          3.4136    3.9788    0.8798 H         1 <0>         0.0625
     35 H8          5.8958    6.8660   -1.4629 H         1 <0>         0.1068
     36 H9          6.3520    5.2359   -2.0133 H         1 <0>         0.1062
     37 H10         4.4017    3.6567   -2.9773 H         1 <0>         0.1733
     38 H11         1.9690    4.2063   -3.7966 H         1 <0>         0.1695
     39 H12         3.3412    7.5545   -1.6593 H         1 <0>         0.2023
     40 H13         7.6260    3.6272    0.2628 H         1 <0>         0.1506
     41 H14         9.7633    4.0589    1.4053 H         1 <0>         0.1452
     42 H15         8.4507    8.0020    2.3723 H         1 <0>         0.1494
@<TRIPOS>BOND
     1    1    9 ar
     2    1    2 ar
     3    1   29 1
     4    2    3 ar
     5    2   30 1
     6    3    7 ar
     7    3    4 1
     8    4    5 2
     9    4   11 1
    10    5    6 1
    11    5   31 1
    12    6    7 1
    13    7    8 ar
    14    8    9 ar
    15    8   10 1
    16    9   32 1
    17   11   12 1
    18   11   33 1
    19   11   34 1
    20   12   13 1
    21   13   14 1
    22   13   15 1
    23   13   21 1
    24   15   16 1
    25   15   35 1
    26   15   36 1
    27   16   20 1
    28   16   17 1
    29   17   18 2
    30   17   37 1
    31   18   19 1
    32   18   38 1
    33   19   20 2
    34   20   39 1
    35   21   26 ar
    36   21   22 ar
    37   22   23 ar
    38   22   40 1
    39   23   24 ar
    40   23   41 1
    41   24   25 ar
    42   24   28 1
    43   25   26 ar
    44   25   42 1
    45   26   27 1
@<TRIPOS>MOLECULE
ZINC00601274
   67    71     0     0     0
SMALL
USER_CHARGES

@<TRIPOS>ATOM
      1 C1         -0.0173    1.4248    0.0099 C.3       1 <0>         0.0224
      2 O1          0.0021   -0.0041    0.0020 O.3       1 <0>        -0.3102
      3 C2          0.6058   -0.6071   -1.0557 C.ar      1 <0>         0.1527
      4 C3          1.1730    0.1607   -2.0624 C.ar      1 <0>        -0.2067
      5 C4          1.7865   -0.4547   -3.1363 C.ar      1 <0>        -0.0644
      6 C5          1.8352   -1.8346   -3.2086 C.ar      1 <0>        -0.1592
      7 C6          1.2702   -2.6021   -2.2068 C.ar      1 <0>        -0.0668
      8 C7          0.6609   -1.9915   -1.1277 C.ar      1 <0>        -0.1497
      9 C8          2.5046   -2.5033   -4.3815 C.3       1 <0>        -0.0905
     10 C9          3.9857   -2.7227   -4.0663 C.3       1 <0>        -0.0094
     11 N1          4.6383   -3.3746   -5.2096 N.4       1 <0>        -0.3874
     12 C10         4.0698   -4.7148   -5.3968 C.3       1 <0>        -0.0091
     13 C11         4.6882   -5.3670   -6.6352 C.3       1 <0>        -0.1548
     14 C12         6.2039   -5.4757   -6.4451 C.3       1 <0>         0.1296
     15 C13         6.7761   -4.0808   -6.1767 C.3       1 <0>        -0.1730
     16 C14         6.0803   -3.4763   -4.9553 C.3       1 <0>        -0.0038
     17 N2          6.8113   -6.0294   -7.6578 N.pl3     1 <0>        -0.6860
     18 C15         8.0180   -6.6927   -7.5834 C.cat     1 <0>         0.6345
     19 N3          8.7020   -6.8894   -6.4840 N.pl3     1 <0>        -0.5322
     20 C16         9.8394   -7.5757   -6.7708 C.ar      1 <0>         0.0552
     21 C17        10.9029   -8.0392   -5.9923 C.ar      1 <0>        -0.0776
     22 C18        11.9400   -8.7213   -6.5881 C.ar      1 <0>        -0.0769
     23 C19        11.9371   -8.9520   -7.9558 C.ar      1 <0>        -0.0650
     24 C20        10.8945   -8.5005   -8.7384 C.ar      1 <0>        -0.0869
     25 C21         9.8416   -7.8121   -8.1552 C.ar      1 <0>         0.0882
     26 N4          8.6748   -7.2475   -8.6442 N.pl3     1 <0>        -0.4526
     27 C22         8.2299   -7.2439  -10.0400 C.3       1 <0>         0.1501
     28 C23         8.7638   -6.0175  -10.7343 C.ar      1 <0>        -0.1610
     29 C24         8.0277   -4.8473  -10.7325 C.ar      1 <0>        -0.0724
     30 C25         8.5165   -3.7219  -11.3684 C.ar      1 <0>        -0.1535
     31 C26         9.7440   -3.7666  -12.0075 C.ar      1 <0>         0.1357
     32 C27        10.4803   -4.9392  -12.0086 C.ar      1 <0>        -0.1459
     33 C28         9.9919   -6.0618  -11.3675 C.ar      1 <0>        -0.0549
     34 F1         10.2226   -2.6672  -12.6298 F         1 <0>        -0.1219
     35 H1          1.0053    1.8021    0.0021 H         1 <0>         0.0601
     36 H2         -0.5445    1.7859   -0.8732 H         1 <0>         0.0614
     37 H3         -0.5275    1.7763    0.9067 H         1 <0>         0.1105
     38 H4          1.1347    1.2385   -2.0068 H         1 <0>         0.1365
     39 H5          2.2283    0.1425   -3.9203 H         1 <0>         0.1263
     40 H6          1.3092   -3.6798   -2.2657 H         1 <0>         0.1297
     41 H7          0.2237   -2.5913   -0.3432 H         1 <0>         0.1391
     42 H8          2.0276   -3.4646   -4.5726 H         1 <0>         0.0931
     43 H9          2.4108   -1.8695   -5.2632 H         1 <0>         0.0939
     44 H10         4.4627   -1.7615   -3.8752 H         1 <0>         0.1369
     45 H11         4.0795   -3.3566   -3.1846 H         1 <0>         0.1350
     46 H12         4.2840   -5.3256   -4.5198 H         1 <0>         0.1385
     47 H13         2.9906   -4.6361   -5.5288 H         1 <0>         0.1499
     48 H14         4.2661   -6.3627   -6.7714 H         1 <0>         0.1306
     49 H15         4.4743   -4.7571   -7.5129 H         1 <0>         0.1071
     50 H16         6.4192   -6.1271   -5.5981 H         1 <0>         0.1090
     51 H17         7.8464   -4.1571   -5.9852 H         1 <0>         0.1147
     52 H18         6.6055   -3.4442   -7.0449 H         1 <0>         0.1086
     53 H19         6.4855   -2.4832   -4.7614 H         1 <0>         0.1451
     54 H20         6.2517   -4.1135   -4.0877 H         1 <0>         0.1361
     55 H21         6.3646   -5.9295   -8.5130 H         1 <0>         0.4377
     56 H22        10.9118   -7.8627   -4.9269 H         1 <0>         0.1509
     57 H23        12.7621   -9.0790   -5.9860 H         1 <0>         0.1582
     58 H24        12.7565   -9.4883   -8.4111 H         1 <0>         0.1585
     59 H25        10.8985   -8.6827   -9.8029 H         1 <0>         0.1493
     60 H26         8.6021   -8.1367  -10.5423 H         1 <0>         0.1352
     61 H27         7.1405   -7.2353  -10.0741 H         1 <0>         0.1167
     62 H28         7.0701   -4.8127  -10.2343 H         1 <0>         0.1232
     63 H29         7.9411   -2.8079  -11.3672 H         1 <0>         0.1451
     64 H30        11.4378   -4.9753  -12.5070 H         1 <0>         0.1509
     65 H31        10.5681   -6.9753  -11.3644 H         1 <0>         0.1400
     66 H32         4.4825   -2.8261   -6.0421 H         1 <0>         0.4261
     67 H33         8.4373   -6.5905   -5.6000 H         1 <0>         0.4497
@<TRIPOS>BOND
     1    1    2 1
     2    1   35 1
     3    1   36 1
     4    1   37 1
     5    2    3 1
     6    3    8 ar
     7    3    4 ar
     8    4    5 ar
     9    4   38 1
    10    5    6 ar
    11    5   39 1
    12    6    7 ar
    13    6    9 1
    14    7    8 ar
    15    7   40 1
    16    8   41 1
    17    9   10 1
    18    9   42 1
    19    9   43 1
    20   10   11 1
    21   10   44 1
    22   10   45 1
    23   11   16 1
    24   11   12 1
    25   11   66 1
    26   12   13 1
    27   12   46 1
    28   12   47 1
    29   13   14 1
    30   13   48 1
    31   13   49 1
    32   14   15 1
    33   14   17 1
    34   14   50 1
    35   15   16 1
    36   15   51 1
    37   15   52 1
    38   16   53 1
    39   16   54 1
    40   17   18 1
    41   17   55 1
    42   18   26 1
    43   18   19 2
    44   19   20 1
    45   19   67 1
    46   20   25 ar
    47   20   21 ar
    48   21   22 ar
    49   21   56 1
    50   22   23 ar
    51   22   57 1
    52   23   24 ar
    53   23   58 1
    54   24   25 ar
    55   24   59 1
    56   25   26 1
    57   26   27 1
    58   27   28 1
    59   27   60 1
    60   27   61 1
    61   28   33 ar
    62   28   29 ar
    63   29   30 ar
    64   29   62 1
    65   30   31 ar
    66   30   63 1
    67   31   32 ar
    68   31   34 1
    69   32   33 ar
    70   32   64 1
    71   33   65 1
@<TRIPOS>MOLECULE
ZINC00596881
   39    41     0     0     0
SMALL
USER_CHARGES

@<TRIPOS>ATOM
      1 C1         -0.0167    1.3782    0.0096 C.ar      1 <0>        -0.0853
      2 C2          1.1706    2.0858    0.0021 C.ar      1 <0>        -0.1123
      3 C3          2.3780    1.4104   -0.0130 C.ar      1 <0>        -0.0269
      4 C4          2.3961    0.0270   -0.0206 C.ar      1 <0>        -0.1121
      5 C5          1.2082   -0.6795   -0.0130 C.ar      1 <0>        -0.0843
      6 C6          0.0021   -0.0041    0.0020 C.ar      1 <0>        -0.0843
      7 C7         -1.2928   -0.7750    0.0107 C.3       1 <0>         0.0875
      8 O1         -1.7154   -1.0114   -1.3338 O.3       1 <0>        -0.3630
      9 C8         -2.9406   -1.7395   -1.4384 C.3       1 <0>         0.1181
     10 H1         -3.5665   -1.5238   -0.5725 H         1 <0>         0.0885
     11 C9         -2.6400   -3.2388   -1.4897 C.3       1 <0>         0.0877
     12 N1         -2.0453   -3.6614   -0.2192 N.pl3     1 <0>        -0.4608
     13 C10        -0.7116   -3.6755    0.0884 C.2       1 <0>        -0.0532
     14 C11        -0.6078   -4.1309    1.3514 C.2       1 <0>        -0.0267
     15 N2         -1.8445   -4.3878    1.8028 N.2       1 <0>        -0.4883
     16 C12        -2.7109   -4.1042    0.8691 C.2       1 <0>         0.1826
     17 C13        -3.6632   -1.3287   -2.6954 C.ar      1 <0>        -0.0827
     18 C14        -2.9524   -0.8197   -3.7662 C.ar      1 <0>        -0.0617
     19 C15        -3.6144   -0.4428   -4.9193 C.ar      1 <0>        -0.1051
     20 C16        -4.9894   -0.5752   -5.0028 C.ar      1 <0>        -0.0176
     21 C17        -5.7010   -1.0849   -3.9319 C.ar      1 <0>        -0.1015
     22 C18        -5.0372   -1.4665   -2.7796 C.ar      1 <0>        -0.0168
     23 Cl1        -5.9289   -2.1120   -1.4372 Cl        1 <0>        -0.0503
     24 Cl2        -5.8209   -0.1012   -6.4511 Cl        1 <0>        -0.0495
     25 Cl3         3.8696    2.2984   -0.0231 Cl        1 <0>        -0.0658
     26 H2         -0.9592    1.9053    0.0259 H         1 <0>         0.1320
     27 H3          1.1558    3.1656    0.0076 H         1 <0>         0.1359
     28 H4          3.3383   -0.5007   -0.0327 H         1 <0>         0.1367
     29 H5          1.2222   -1.7594   -0.0193 H         1 <0>         0.1326
     30 H6         -1.1447   -1.7283    0.5180 H         1 <0>         0.0827
     31 H7         -2.0551   -0.1989    0.5352 H         1 <0>         0.0591
     32 H8         -3.5655   -3.7893   -1.6585 H         1 <0>         0.1065
     33 H9         -1.9429   -3.4420   -2.3026 H         1 <0>         0.1060
     34 H10         0.1013   -3.3788   -0.5578 H         1 <0>         0.1732
     35 H11         0.3102   -4.2656    1.9041 H         1 <0>         0.1708
     36 H12        -3.7827   -4.2087    0.9521 H         1 <0>         0.2027
     37 H13        -1.8793   -0.7161   -3.7015 H         1 <0>         0.1518
     38 H14        -3.0587   -0.0445   -5.7553 H         1 <0>         0.1448
     39 H15        -6.7741   -1.1884   -3.9966 H         1 <0>         0.1491
@<TRIPOS>BOND
     1    1    6 ar
     2    1    2 ar
     3    1   26 1
     4    2    3 ar
     5    2   27 1
     6    3    4 ar
     7    3   25 1
     8    4    5 ar
     9    4   28 1
    10    5    6 ar
    11    5   29 1
    12    6    7 1
    13    7    8 1
    14    7   30 1
    15    7   31 1
    16    8    9 1
    17    9   10 1
    18    9   11 1
    19    9   17 1
    20   11   12 1
    21   11   32 1
    22   11   33 1
    23   12   16 1
    24   12   13 1
    25   13   14 2
    26   13   34 1
    27   14   15 1
    28   14   35 1
    29   15   16 2
    30   16   36 1
    31   17   22 ar
    32   17   18 ar
    33   18   19 ar
    34   18   37 1
    35   19   20 ar
    36   19   38 1
    37   20   21 ar
    38   20   24 1
    39   21   22 ar
    40   21   39 1
    41   22   23 1
@<TRIPOS>MOLECULE
ZINC00608205
   34    36     0     0     0
SMALL
USER_CHARGES

@<TRIPOS>ATOM
      1 C1         -0.0255    1.5538   -0.0092 C.3       1 <0>        -0.1535
      2 C2          0.0084    0.0241   -0.0098 C.3       1 <0>        -0.0596
      3 C3         -1.4008   -0.5096    0.0105 C.2       1 <0>         0.0993
      4 C4         -2.1472   -0.7920   -1.0938 C.2       1 <0>        -0.2565
      5 C5         -3.4435   -1.2831   -0.5846 C.ar      1 <0>        -0.0966
      6 C6         -4.6170   -1.7270   -1.1853 C.ar      1 <0>        -0.0761
      7 C7         -5.6759   -2.1278   -0.3988 C.ar      1 <0>        -0.1238
      8 C8         -5.5720   -2.0888    0.9835 C.ar      1 <0>        -0.0916
      9 C9         -4.4137   -1.6507    1.5892 C.ar      1 <0>        -0.0999
     10 C10        -3.3358   -1.2427    0.8129 C.ar      1 <0>         0.0522
     11 O1         -2.1041   -0.7825    1.1153 O.3       1 <0>        -0.1780
     12 C11        -1.7459   -0.6392   -2.4996 C.2       1 <0>         0.4828
     13 O2         -2.0291    0.3771   -3.1061 O.2       1 <0>        -0.4225
     14 C12        -0.9994   -1.7185   -3.1756 C.ar      1 <0>        -0.1641
     15 C13        -0.7767   -2.9330   -2.5206 C.ar      1 <0>        -0.0068
     16 C14        -0.0799   -3.9382   -3.1550 C.ar      1 <0>        -0.1316
     17 C15         0.4016   -3.7456   -4.4453 C.ar      1 <0>         0.1999
     18 C16         0.1824   -2.5386   -5.1001 C.ar      1 <0>        -0.1315
     19 C17        -0.5185   -1.5307   -4.4744 C.ar      1 <0>        -0.0027
     20 Br1         0.8403   -2.2829   -6.8544 Br        1 <0>        -0.0091
     21 O3          1.0876   -4.7382   -5.0670 O.3       1 <0>        -0.4704
     22 Br2         0.2227   -5.5815   -2.2697 Br        1 <0>        -0.0103
     23 H1          0.9937    1.9398   -0.0238 H         1 <0>         0.0749
     24 H2         -0.5600    1.9056   -0.8916 H         1 <0>         0.0641
     25 H3         -0.5345    1.9056    0.8882 H         1 <0>         0.0646
     26 H4          0.5173   -0.3277   -0.9071 H         1 <0>         0.0979
     27 H5          0.5429   -0.3277    0.8726 H         1 <0>         0.0974
     28 H6         -4.6982   -1.7571   -2.2618 H         1 <0>         0.1271
     29 H7         -6.5892   -2.4729   -0.8606 H         1 <0>         0.1343
     30 H8         -6.4069   -2.4045    1.5915 H         1 <0>         0.1396
     31 H9         -4.3442   -1.6243    2.6666 H         1 <0>         0.1364
     32 H10        -1.1499   -3.0832   -1.5183 H         1 <0>         0.1510
     33 H11        -0.6925   -0.5953   -4.9854 H         1 <0>         0.1572
     34 H12         0.5302   -5.3422   -5.5766 H         1 <0>         0.4058
@<TRIPOS>BOND
     1    1    2 1
     2    1   23 1
     3    1   24 1
     4    1   25 1
     5    2    3 1
     6    2   26 1
     7    2   27 1
     8    3   11 1
     9    3    4 2
    10    4    5 1
    11    4   12 1
    12    5   10 ar
    13    5    6 ar
    14    6    7 ar
    15    6   28 1
    16    7    8 ar
    17    7   29 1
    18    8    9 ar
    19    8   30 1
    20    9   10 ar
    21    9   31 1
    22   10   11 1
    23   12   13 2
    24   12   14 1
    25   14   19 ar
    26   14   15 ar
    27   15   16 ar
    28   15   32 1
    29   16   17 ar
    30   16   22 1
    31   17   18 ar
    32   17   21 1
    33   18   19 ar
    34   18   20 1
    35   19   33 1
    36   21   34 1
@<TRIPOS>MOLECULE
ZINC00608101
   36    38     0     0     0
SMALL
USER_CHARGES

@<TRIPOS>ATOM
      1 C1         -0.0167    1.3792    0.0096 C.ar      1 <0>        -0.1050
      2 C2          1.1708    2.0869    0.0021 C.ar      1 <0>        -0.0625
      3 C3          2.3773    1.4131   -0.0135 C.ar      1 <0>        -0.0818
      4 C4          2.3974    0.0294   -0.0212 C.ar      1 <0>        -0.0166
      5 C5          1.2096   -0.6792   -0.0132 C.ar      1 <0>        -0.1009
      6 C6          0.0021   -0.0041    0.0020 C.ar      1 <0>        -0.0177
      7 Cl1        -1.4893   -0.8926    0.0121 Cl        1 <0>        -0.0495
      8 Cl2         3.9130   -0.8168   -0.0414 Cl        1 <0>        -0.0496
      9 C7          3.6714    2.1853   -0.0227 C.3       1 <0>         0.1190
     10 H1          4.4207    1.6456    0.5564 H         1 <0>         0.0889
     11 C8          4.1592    2.3459   -1.4640 C.3       1 <0>         0.0886
     12 N1          5.4746    2.9910   -1.4653 N.pl3     1 <0>        -0.4620
     13 C9          5.7192    4.3368   -1.5144 C.2       1 <0>        -0.0489
     14 C10         7.0569    4.4907   -1.4949 C.2       1 <0>        -0.0255
     15 N2          7.6139    3.2720   -1.4355 N.2       1 <0>        -0.4871
     16 C11         6.6721    2.3690   -1.4124 C.2       1 <0>         0.1806
     17 O1          3.4606    3.4751    0.5553 O.3       1 <0>        -0.3650
     18 C12         4.6108    4.0135    1.2103 C.3       1 <0>         0.1029
     19 C13         4.2765    5.3681    1.7798 C.2       1 <0>        -0.1006
     20 C14         3.0088    5.8995    1.6296 C.2       1 <0>        -0.1344
     21 C15         2.7412    7.1199    2.1542 C.2       1 <0>        -0.1658
     22 S1          4.3079    7.5582    2.8894 S.3       1 <0>         0.0961
     23 C16         5.2130    6.0827    2.4525 C.2       1 <0>        -0.1240
     24 Cl3         6.8638    5.6705    2.7971 Cl        1 <0>         0.0236
     25 H2         -0.9592    1.9062    0.0260 H         1 <0>         0.1449
     26 H3          1.1557    3.1667    0.0080 H         1 <0>         0.1508
     27 H4          1.2248   -1.7590   -0.0191 H         1 <0>         0.1492
     28 H5          4.2350    1.3651   -1.9333 H         1 <0>         0.1064
     29 H6          3.4522    2.9613   -2.0204 H         1 <0>         0.1058
     30 H7          4.9812    5.1240   -1.5603 H         1 <0>         0.1730
     31 H8          7.5881    5.4307   -1.5223 H         1 <0>         0.1694
     32 H9          6.8251    1.3011   -1.3620 H         1 <0>         0.2020
     33 H10         4.9159    3.3458    2.0161 H         1 <0>         0.0633
     34 H11         5.4250    4.1120    0.4923 H         1 <0>         0.0901
     35 H12         2.2434    5.3501    1.1017 H         1 <0>         0.1488
     36 H13         1.8193    7.6820    2.1326 H         1 <0>         0.1935
@<TRIPOS>BOND
     1    1    6 ar
     2    1    2 ar
     3    1   25 1
     4    2    3 ar
     5    2   26 1
     6    3    4 ar
     7    3    9 1
     8    4    5 ar
     9    4    8 1
    10    5    6 ar
    11    5   27 1
    12    6    7 1
    13    9   10 1
    14    9   11 1
    15    9   17 1
    16   11   12 1
    17   11   28 1
    18   11   29 1
    19   12   16 1
    20   12   13 1
    21   13   14 2
    22   13   30 1
    23   14   15 1
    24   14   31 1
    25   15   16 2
    26   16   32 1
    27   17   18 1
    28   18   19 1
    29   18   33 1
    30   18   34 1
    31   19   23 2
    32   19   20 1
    33   20   21 2
    34   20   35 1
    35   21   22 1
    36   21   36 1
    37   22   23 1
    38   23   24 1
@<TRIPOS>MOLECULE
ZINC00607971
   39    41     0     0     0
SMALL
USER_CHARGES

@<TRIPOS>ATOM
      1 C1         -0.0167    1.3792    0.0096 C.ar      1 <0>        -0.1048
      2 C2          1.1708    2.0869    0.0021 C.ar      1 <0>        -0.0750
      3 C3          2.3773    1.4131   -0.0135 C.ar      1 <0>        -0.0723
      4 C4          2.3974    0.0294   -0.0212 C.ar      1 <0>        -0.0216
      5 C5          1.2096   -0.6792   -0.0132 C.ar      1 <0>        -0.0995
      6 C6          0.0021   -0.0041    0.0020 C.ar      1 <0>        -0.0247
      7 Cl1        -1.4893   -0.8926    0.0121 Cl        1 <0>        -0.0542
      8 Cl2         3.9130   -0.8168   -0.0414 Cl        1 <0>        -0.0471
      9 C7          3.6714    2.1853   -0.0227 C.3       1 <0>         0.0868
     10 O1          3.3901    3.5863   -0.0128 O.3       1 <0>        -0.3671
     11 C8          4.5556    4.4132   -0.0205 C.3       1 <0>         0.1203
     12 H1          5.3616    3.9002   -0.5451 H         1 <0>         0.0900
     13 C9          4.9861    4.7010    1.4192 C.3       1 <0>         0.0882
     14 N1          5.4009    3.4525    2.0638 N.pl3     1 <0>        -0.4624
     15 C10         4.5960    2.5909    2.7589 C.2       1 <0>        -0.0515
     16 C11         5.3790    1.5786    3.1781 C.2       1 <0>        -0.0235
     17 N2          6.6280    1.8156    2.7505 N.2       1 <0>        -0.4865
     18 C12         6.6477    2.9338    2.0780 C.2       1 <0>         0.1814
     19 C13         4.2462    5.7110   -0.7212 C.ar      1 <0>        -0.0826
     20 C14         2.9457    6.1775   -0.7692 C.ar      1 <0>        -0.0629
     21 C15         2.6612    7.3675   -1.4116 C.ar      1 <0>        -0.1048
     22 C16         3.6781    8.0931   -2.0070 C.ar      1 <0>        -0.0174
     23 C17         4.9794    7.6271   -1.9589 C.ar      1 <0>        -0.1007
     24 C18         5.2644    6.4381   -1.3114 C.ar      1 <0>        -0.0164
     25 Cl3         6.8983    5.8554   -1.2454 Cl        1 <0>        -0.0493
     26 Cl4         3.3204    9.5877   -2.8144 Cl        1 <0>        -0.0490
     27 H2         -0.9592    1.9062    0.0260 H         1 <0>         0.1420
     28 H3          1.1557    3.1667    0.0080 H         1 <0>         0.1492
     29 H4          1.2248   -1.7590   -0.0191 H         1 <0>         0.1470
     30 H5          4.2557    1.9258    0.8601 H         1 <0>         0.0957
     31 H6          4.2377    1.9347   -0.9198 H         1 <0>         0.0696
     32 H7          5.8203    5.4026    1.4156 H         1 <0>         0.1070
     33 H8          4.1501    5.1334    1.9689 H         1 <0>         0.1064
     34 H9          3.5366    2.7018    2.9373 H         1 <0>         0.1730
     35 H10         5.0576    0.7254    3.7570 H         1 <0>         0.1693
     36 H11         7.5175    3.3730    1.6123 H         1 <0>         0.2021
     37 H12         2.1518    5.6116   -0.3047 H         1 <0>         0.1508
     38 H13         1.6450    7.7312   -1.4494 H         1 <0>         0.1451
     39 H14         5.7734    8.1930   -2.4234 H         1 <0>         0.1494
@<TRIPOS>BOND
     1    1    6 ar
     2    1    2 ar
     3    1   27 1
     4    2    3 ar
     5    2   28 1
     6    3    4 ar
     7    3    9 1
     8    4    5 ar
     9    4    8 1
    10    5    6 ar
    11    5   29 1
    12    6    7 1
    13    9   10 1
    14    9   30 1
    15    9   31 1
    16   10   11 1
    17   11   12 1
    18   11   13 1
    19   11   19 1
    20   13   14 1
    21   13   32 1
    22   13   33 1
    23   14   18 1
    24   14   15 1
    25   15   16 2
    26   15   34 1
    27   16   17 1
    28   16   35 1
    29   17   18 2
    30   18   36 1
    31   19   24 ar
    32   19   20 ar
    33   20   21 ar
    34   20   37 1
    35   21   22 ar
    36   21   38 1
    37   22   23 ar
    38   22   26 1
    39   23   24 ar
    40   23   39 1
    41   24   25 1
@<TRIPOS>MOLECULE
ZINC00601293
   52    55     0     0     0
SMALL
USER_CHARGES

@<TRIPOS>ATOM
      1 C1          0.0866    1.2610   -0.8506 C.ar      1 <0>        -0.1096
      2 C2         -0.1755    1.8762   -2.0636 C.ar      1 <0>        -0.1041
      3 C3         -0.2125    1.1342   -3.2249 C.ar      1 <0>        -0.0882
      4 C4          0.0134   -0.2407   -3.1893 C.ar      1 <0>        -0.1084
      5 C5          0.2786   -0.8618   -1.9677 C.ar      1 <0>        -0.0320
      6 C6          0.3129   -0.0972   -0.7979 C.ar      1 <0>        -0.1018
      7 C7          0.5275   -2.3128   -1.8804 C.2       1 <0>        -0.0675
      8 C8          0.3235   -2.9359   -0.7098 C.2       1 <0>        -0.1125
      9 C9          0.1148   -4.4280   -0.6768 C.3       1 <0>        -0.1021
     10 C10        -1.1629   -4.7471    0.1020 C.3       1 <0>         0.0625
     11 N1         -1.3664   -6.2016    0.1342 N.3       1 <0>        -0.5390
     12 C11        -0.3111   -6.8638    0.9136 C.3       1 <0>         0.0552
     13 C12        -0.5136   -8.3798    0.8566 C.3       1 <0>         0.0554
     14 N2         -1.8433   -8.7140    1.3854 N.3       1 <0>        -0.5303
     15 C13        -2.8986   -8.0518    0.6060 C.3       1 <0>         0.0583
     16 C14        -2.6961   -6.5358    0.6630 C.3       1 <0>         0.0589
     17 C15        -2.0468  -10.1685    1.4176 C.3       1 <0>         0.0535
     18 C16        -1.2675  -10.7666    2.5906 C.3       1 <0>         0.0824
     19 O1         -1.7777  -10.2424    3.8182 O.3       1 <0>        -0.5595
     20 C17         0.9925   -3.1024   -3.0360 C.ar      1 <0>        -0.0263
     21 C18         1.6544   -4.3123   -2.8069 C.ar      1 <0>        -0.0899
     22 C19         2.1016   -5.0701   -3.8685 C.ar      1 <0>        -0.0333
     23 C20         1.8972   -4.6352   -5.1686 C.ar      1 <0>        -0.0911
     24 C21         1.2448   -3.4446   -5.4077 C.ar      1 <0>        -0.0823
     25 C22         0.7860   -2.6671   -4.3460 C.ar      1 <0>        -0.0997
     26 S1         -0.0438   -1.1558   -4.6892 S.3       1 <0>         0.0476
     27 Cl1         2.9226   -6.5715   -3.5763 Cl        1 <0>        -0.0602
     28 H1          0.1181    1.8480    0.0554 H         1 <0>         0.1307
     29 H2         -0.3517    2.9411   -2.0997 H         1 <0>         0.1326
     30 H3         -0.4180    1.6207   -4.1670 H         1 <0>         0.1330
     31 H4          0.5168   -0.5725    0.1501 H         1 <0>         0.1301
     32 H5          0.3088   -2.3681    0.2088 H         1 <0>         0.1274
     33 H6          0.0231   -4.8047   -1.6955 H         1 <0>         0.0929
     34 H7          0.9659   -4.9032   -0.1890 H         1 <0>         0.0789
     35 H8         -1.0712   -4.3704    1.1207 H         1 <0>         0.0380
     36 H9         -2.0140   -4.2720   -0.3859 H         1 <0>         0.0775
     37 H10         0.6631   -6.6111    0.4950 H         1 <0>         0.0801
     38 H11        -0.3600   -6.5292    1.9498 H         1 <0>         0.0439
     39 H12        -0.4376   -8.7182   -0.1768 H         1 <0>         0.0423
     40 H13         0.2510   -8.8717    1.4578 H         1 <0>         0.0776
     41 H14        -2.8497   -8.3865   -0.4302 H         1 <0>         0.0418
     42 H15        -3.8728   -8.3046    1.0245 H         1 <0>         0.0804
     43 H16        -2.7721   -6.1974    1.6963 H         1 <0>         0.0444
     44 H17        -3.4607   -6.0440    0.0618 H         1 <0>         0.0798
     45 H18        -3.1083  -10.3844    1.5388 H         1 <0>         0.0811
     46 H19        -1.6913  -10.6059    0.4846 H         1 <0>         0.0513
     47 H20        -1.3778  -11.8510    2.5849 H         1 <0>         0.0477
     48 H21        -0.2128  -10.5082    2.4956 H         1 <0>         0.0434
     49 H22        -1.3294  -10.5789    4.6061 H         1 <0>         0.3745
     50 H23         1.8162   -4.6543   -1.7953 H         1 <0>         0.1497
     51 H24         2.2499   -5.2314   -5.9972 H         1 <0>         0.1425
     52 H25         1.0892   -3.1120   -6.4234 H         1 <0>         0.1421
@<TRIPOS>BOND
     1    1    6 ar
     2    1    2 ar
     3    1   28 1
     4    2    3 ar
     5    2   29 1
     6    3    4 ar
     7    3   30 1
     8    4   26 1
     9    4    5 ar
    10    5    6 ar
    11    5    7 1
    12    6   31 1
    13    7    8 2
    14    7   20 1
    15    8    9 1
    16    8   32 1
    17    9   10 1
    18    9   33 1
    19    9   34 1
    20   10   11 1
    21   10   35 1
    22   10   36 1
    23   11   16 1
    24   11   12 1
    25   12   13 1
    26   12   37 1
    27   12   38 1
    28   13   14 1
    29   13   39 1
    30   13   40 1
    31   14   15 1
    32   14   17 1
    33   15   16 1
    34   15   41 1
    35   15   42 1
    36   16   43 1
    37   16   44 1
    38   17   18 1
    39   17   45 1
    40   17   46 1
    41   18   19 1
    42   18   47 1
    43   18   48 1
    44   19   49 1
    45   20   25 ar
    46   20   21 ar
    47   21   22 ar
    48   21   50 1
    49   22   23 ar
    50   22   27 1
    51   23   24 ar
    52   23   51 1
    53   24   25 ar
    54   24   52 1
    55   25   26 1
@<TRIPOS>MOLECULE
ZINC35018256
   54    58     0     0     0
SMALL
NO_CHARGES

@<TRIPOS>ATOM
      1 C1         -0.0187    1.5258    0.0104 C.3       1 <0>        -0.1656
      2 C2          0.0021   -0.0041    0.0020 C.3       1 <0>        -0.1416
      3 C3         -1.4333   -0.5336    0.0129 C.3       1 <0>         0.1280
      4 C4         -1.4160   -2.0425   -0.0128 C.2       1 <0>         0.1061
      5 C5         -1.1021   -2.7297    1.1701 C.2       1 <0>        -0.1485
      6 C6         -1.0686   -4.0869    1.1700 C.2       1 <0>         0.1603
      7 N1         -1.0939   -4.7478   -0.0711 N.4       1 <0>        -0.3480
      8 C7         -1.6190   -4.1126   -1.1852 C.2       1 <0>         0.4376
      9 O1         -1.9961   -4.8200   -2.2630 O.3       1 <0>        -0.4561
     10 C8         -1.7463   -2.7447   -1.1648 C.2       1 <0>        -0.2798
     11 C9         -2.2538   -2.0551   -2.4027 C.3       1 <0>         0.1482
     12 O2         -1.9180   -0.6669   -2.3787 O.3       1 <0>        -0.3553
     13 C10        -2.1669   -0.0344   -1.2108 C.2       1 <0>         0.4690
     14 O3         -2.9424    0.8900   -1.1474 O.2       1 <0>        -0.4105
     15 C11        -1.7675   -6.0294    0.1826 C.3       1 <0>         0.0552
     16 C12        -1.3840   -6.3467    1.6166 C.ar      1 <0>        -0.1517
     17 C13        -0.9672   -5.1252    2.2002 C.ar      1 <0>        -0.0114
     18 N2         -0.5765   -5.0702    3.4680 N.ar      1 <0>        -0.3636
     19 C14        -0.5504   -6.1537    4.2333 C.ar      1 <0>         0.0845
     20 C15        -0.1315   -6.0947    5.5808 C.2       1 <0>        -0.0356
     21 C16        -0.1128   -7.2211    6.3320 C.2       1 <0>        -0.1690
     22 C17        -0.5054   -8.4673    5.8031 C.2       1 <0>         0.3322
     23 C18        -0.9290   -8.5836    4.4824 C.2       1 <0>        -0.2054
     24 C19        -0.9630   -7.4466    3.6753 C.ar      1 <0>         0.0095
     25 C20        -1.3846   -7.4985    2.3291 C.ar      1 <0>        -0.0555
     26 C21        -1.3461   -9.9226    3.9309 C.3       1 <0>         0.1148
     27 N3         -2.7861  -10.1149    4.1487 N.3       1 <0>        -0.5429
     28 C22        -3.2759  -11.2931    3.4208 C.3       1 <0>         0.0226
     29 C23        -3.0929  -10.2162    5.5817 C.3       1 <0>         0.0334
     30 O4         -0.4701   -9.5525    6.5806 O.2       1 <0>        -0.5779
     31 O5         -2.1025   -0.0795    1.1910 O.3       1 <0>        -0.5199
     32 H1          1.0039    1.9031    0.0027 H         1 <0>         0.0804
     33 H2         -0.5459    1.8868   -0.8726 H         1 <0>         0.0619
     34 H3         -0.5289    1.8773    0.9072 H         1 <0>         0.0674
     35 H4          0.5123   -0.3556   -0.8948 H         1 <0>         0.0921
     36 H5          0.5293   -0.3651    0.8851 H         1 <0>         0.1010
     37 H6         -0.8887   -2.1817    2.0759 H         1 <0>         0.1897
     38 H7         -1.8050   -2.5181   -3.2815 H         1 <0>         0.1374
     39 H8         -3.3373   -2.1619   -2.4550 H         1 <0>         0.0965
     40 H9         -2.8480   -5.9213    0.0885 H         1 <0>         0.1491
     41 H10        -1.3967   -6.7994   -0.4940 H         1 <0>         0.1545
     42 H11         0.1731   -5.1523    6.0115 H         1 <0>         0.1383
     43 H12         0.2103   -7.1633    7.3609 H         1 <0>         0.1358
     44 H13        -1.6986   -8.4294    1.8805 H         1 <0>         0.1464
     45 H14        -1.1323   -9.9581    2.8627 H         1 <0>         0.0696
     46 H15        -0.7931  -10.7129    4.4386 H         1 <0>         0.0519
     47 H16        -2.7481  -12.1808    3.7694 H         1 <0>         0.0251
     48 H17        -4.3445  -11.4122    3.5995 H         1 <0>         0.0666
     49 H18        -3.0985  -11.1606    2.3536 H         1 <0>         0.0629
     50 H19        -2.7824   -9.3008    6.0854 H         1 <0>         0.0698
     51 H20        -4.1654  -10.3582    5.7145 H         1 <0>         0.0557
     52 H21        -2.5584  -11.0650    6.0086 H         1 <0>         0.0327
     53 H22        -2.1540    0.8831    1.2678 H         1 <0>         0.4034
     54 H23        -0.1383   -4.9834   -0.2934 H         1 <0>         0.4488
@<TRIPOS>BOND
     1    1    2 1
     2    1   32 1
     3    1   33 1
     4    1   34 1
     5    2    3 1
     6    2   35 1
     7    2   36 1
     8    3   13 1
     9    3    4 1
    10    3   31 1
    11    4   10 1
    12    4    5 2
    13    5    6 1
    14    5   37 1
    15    6   17 2
    16    6    7 1
    17    7    8 1
    18    7   15 1
    19    7   54 1
    20    8    9 1
    21    8   10 2
    22   10   11 1
    23   11   12 1
    24   11   38 1
    25   11   39 1
    26   12   13 1
    27   13   14 2
    28   15   16 1
    29   15   40 1
    30   15   41 1
    31   16   25 ar
    32   16   17 ar
    33   17   18 ar
    34   18   19 ar
    35   19   24 ar
    36   19   20 1
    37   20   21 2
    38   20   42 1
    39   21   22 1
    40   21   43 1
    41   22   23 1
    42   22   30 2
    43   23   24 2
    44   23   26 1
    45   24   25 ar
    46   25   44 1
    47   26   27 1
    48   26   45 1
    49   26   46 1
    50   27   28 1
    51   27   29 1
    52   28   47 1
    53   28   48 1
    54   28   49 1
    55   29   50 1
    56   29   51 1
    57   29   52 1
    58   31   53 1
@<TRIPOS>MOLECULE
ZINC00057115
   35    36     0     0     0
SMALL
USER_CHARGES

@<TRIPOS>ATOM
      1 C1         -0.1221    1.4284   -0.6202 C.3       1 <0>        -0.1373
      2 C2         -0.0439   -0.0371   -0.2774 C.2       1 <0>         0.2661
      3 C3         -1.0410   -0.7784    0.2465 C.2       1 <0>        -0.3142
      4 C4         -0.5633   -2.0986    0.4177 C.2       1 <0>         0.5623
      5 O1         -1.1936   -3.0388    0.8670 O.2       1 <0>        -0.5112
      6 N1          0.7163   -2.1282   -0.0075 N.am      1 <0>        -0.3511
      7 N2          1.0473   -0.8406   -0.4503 N.pl3     1 <0>        -0.3434
      8 C5          2.3407   -0.4270   -1.0000 C.3       1 <0>         0.0756
      9 C6          1.5590   -3.2442   -0.0113 C.ar      1 <0>         0.1180
     10 C7          2.8473   -3.1452    0.4983 C.ar      1 <0>        -0.1193
     11 C8          3.6769   -4.2493    0.4935 C.ar      1 <0>        -0.0993
     12 C9          3.2262   -5.4525   -0.0179 C.ar      1 <0>        -0.0978
     13 C10         1.9442   -5.5543   -0.5264 C.ar      1 <0>        -0.0969
     14 C11         1.1076   -4.4555   -0.5193 C.ar      1 <0>        -0.0925
     15 N3         -2.3231   -0.3215    0.5657 N.4       1 <0>        -0.2626
     16 C12        -3.3182   -1.0739   -0.2100 C.3       1 <0>        -0.0470
     17 C13        -2.5700   -0.5181    2.0004 C.3       1 <0>        -0.0471
     18 H1          0.8326    1.7568   -1.0312 H         1 <0>         0.1057
     19 H2         -0.9091    1.5876   -1.3573 H         1 <0>         0.1149
     20 H3         -0.3462    2.0006    0.2800 H         1 <0>         0.1154
     21 H4          3.0179   -0.1739   -0.1842 H         1 <0>         0.0964
     22 H5          2.7650   -1.2433   -1.5844 H         1 <0>         0.1045
     23 H6          2.2015    0.4442   -1.6402 H         1 <0>         0.1176
     24 H7          3.2000   -2.2057    0.8975 H         1 <0>         0.1279
     25 H8          4.6789   -4.1729    0.8892 H         1 <0>         0.1399
     26 H9          3.8769   -6.3145   -0.0204 H         1 <0>         0.1390
     27 H10         1.5955   -6.4952   -0.9257 H         1 <0>         0.1414
     28 H11         0.1049   -4.5369   -0.9122 H         1 <0>         0.1330
     29 H12        -3.1350   -0.9280   -1.2746 H         1 <0>         0.1179
     30 H13        -3.2401   -2.1342    0.0301 H         1 <0>         0.1267
     31 H14        -4.3178   -0.7177    0.0388 H         1 <0>         0.1253
     32 H15        -1.8316    0.0401    2.5759 H         1 <0>         0.1178
     33 H16        -3.5696   -0.1619    2.2492 H         1 <0>         0.1253
     34 H17        -2.4918   -1.5785    2.2405 H         1 <0>         0.1269
     35 H18        -2.3954    0.6600    0.3433 H         1 <0>         0.4218
@<TRIPOS>BOND
     1    1    2 1
     2    1   18 1
     3    1   19 1
     4    1   20 1
     5    2    7 1
     6    2    3 2
     7    3    4 1
     8    3   15 1
     9    4    5 2
    10    4    6 am
    11    6    7 1
    12    6    9 1
    13    7    8 1
    14    8   21 1
    15    8   22 1
    16    8   23 1
    17    9   14 ar
    18    9   10 ar
    19   10   11 ar
    20   10   24 1
    21   11   12 ar
    22   11   25 1
    23   12   13 ar
    24   12   26 1
    25   13   14 ar
    26   13   27 1
    27   14   28 1
    28   15   16 1
    29   15   17 1
    30   15   35 1
    31   16   29 1
    32   16   30 1
    33   16   31 1
    34   17   32 1
    35   17   33 1
    36   17   34 1
@<TRIPOS>MOLECULE
ZINC18098320
   65    66     0     0     0
SMALL
USER_CHARGES

@<TRIPOS>ATOM
      1 C1          2.0265    6.9575    3.8328 C.ar      1 <0>        -0.0867
      2 C2          2.2180    5.6449    3.4213 C.ar      1 <0>         0.1132
      3 C3          1.2065    4.9782    2.7422 C.ar      1 <0>        -0.1090
      4 C4          0.0134    5.6216    2.4779 C.ar      1 <0>        -0.0911
      5 C5         -0.1746    6.9296    2.8887 C.ar      1 <0>        -0.0285
      6 C6          0.8314    7.5962    3.5659 C.ar      1 <0>        -0.0943
      7 Cl1        -1.6754    7.7356    2.5543 Cl        1 <0>        -0.0471
      8 N1          3.4277    4.9957    3.6900 N.pl3     1 <0>        -0.6116
      9 C7          4.6124    5.7063    3.6697 C.cat     1 <0>         0.7238
     10 N2          4.6076    7.0160    3.3488 N.2       1 <0>        -0.6506
     11 C8          5.5450    7.5052    2.5594 C.2       1 <0>         0.7194
     12 N3          6.4653    6.6691    1.9916 N.pl3     1 <0>        -0.7431
     13 C9          7.5423    7.2188    1.1645 C.3       1 <0>         0.0885
     14 C10         8.4264    6.0788    0.6548 C.3       1 <0>        -0.1329
     15 C11         9.5512    6.6529   -0.2090 C.3       1 <0>        -0.1173
     16 C12        10.4354    5.5130   -0.7186 C.3       1 <0>        -0.1150
     17 C13        11.5601    6.0870   -1.5824 C.3       1 <0>        -0.1310
     18 C14        12.4443    4.9471   -2.0921 C.3       1 <0>         0.1425
     19 N4         13.5213    5.4967   -2.9192 N.pl3     1 <0>        -0.7041
     20 C15        14.4469    4.6559   -3.4902 C.2       1 <0>         0.6419
     21 N5         15.5357    5.1791   -4.1562 N.pl3     1 <0>        -0.6786
     22 C16        15.7737    6.5351   -4.1279 C.2       1 <0>         0.6539
     23 N6         15.0377    7.3146   -3.3718 N.2       1 <0>        -0.6205
     24 C17        15.3286    8.6503   -3.2769 C.ar      1 <0>         0.1417
     25 C18        16.5995    9.0639   -2.8739 C.ar      1 <0>        -0.1490
     26 C19        16.8864   10.4100   -2.7808 C.ar      1 <0>        -0.0888
     27 C20        15.9168   11.3501   -3.0860 C.ar      1 <0>        -0.0558
     28 C21        14.6543   10.9462   -3.4858 C.ar      1 <0>        -0.0901
     29 C22        14.3569    9.6030   -3.5883 C.ar      1 <0>        -0.1203
     30 Cl2        16.2856   13.0423   -2.9663 Cl        1 <0>        -0.0694
     31 N7         16.7808    7.0711   -4.8907 N.pl3     1 <0>        -0.8762
     32 N8         14.2957    3.3651   -3.4024 N.2       1 <0>        -0.8026
     33 N9          5.5956    8.8481    2.3094 N.pl3     1 <0>        -0.7858
     34 N10         5.7404    5.1077    3.9623 N.pl3     1 <0>        -0.8044
     35 H1          2.8098    7.4768    4.3650 H         1 <0>         0.1568
     36 H2          1.3529    3.9576    2.4208 H         1 <0>         0.1413
     37 H3         -0.7735    5.1035    1.9499 H         1 <0>         0.1474
     38 H4          0.6819    8.6168    3.8860 H         1 <0>         0.1456
     39 H5          7.1129    7.7525    0.3166 H         1 <0>         0.0859
     40 H6          8.1431    7.9061    1.7600 H         1 <0>         0.0894
     41 H7          8.8558    5.5451    1.5027 H         1 <0>         0.0760
     42 H8          7.8256    5.3915    0.0593 H         1 <0>         0.0766
     43 H9          9.1219    7.1866   -1.0569 H         1 <0>         0.0709
     44 H10        10.1520    7.3403    0.3866 H         1 <0>         0.0713
     45 H11        10.8647    4.9792    0.1293 H         1 <0>         0.0674
     46 H12         9.8346    4.8256   -1.3142 H         1 <0>         0.0676
     47 H13        11.1308    6.6207   -2.4303 H         1 <0>         0.0672
     48 H14        12.1609    6.7744   -0.9869 H         1 <0>         0.0700
     49 H15        12.8736    4.4133   -1.2442 H         1 <0>         0.0589
     50 H16        11.8435    4.2597   -2.6876 H         1 <0>         0.0619
     51 H17        17.3565    8.3315   -2.6352 H         1 <0>         0.1277
     52 H18        17.8692   10.7313   -2.4688 H         1 <0>         0.1330
     53 H19        13.9021   11.6843   -3.7222 H         1 <0>         0.1345
     54 H20        13.3732    9.2892   -3.9049 H         1 <0>         0.1317
     55 H21        16.7535    8.0078   -5.1412 H         1 <0>         0.4193
     56 H22        17.5200    6.5132   -5.1794 H         1 <0>         0.4044
     57 H23        14.9846    2.7720   -3.7409 H         1 <0>         0.3408
     58 H24         4.9425    9.4414    2.7124 H         1 <0>         0.4391
     59 H25         6.2847    9.2077    1.7291 H         1 <0>         0.4284
     60 H26         6.5736    5.6036    3.9366 H         1 <0>         0.4373
     61 H27         5.7423    4.1684    4.2048 H         1 <0>         0.4289
     62 H28         6.4053    5.7118    2.1363 H         1 <0>         0.4163
     63 H29        13.5813    6.4540   -3.0639 H         1 <0>         0.4249
     64 H30        16.1337    4.5918   -4.6444 H         1 <0>         0.4241
     65 H31         3.4347    4.0467    3.8905 H         1 <0>         0.4341
@<TRIPOS>BOND
     1    1    6 ar
     2    1    2 ar
     3    1   35 1
     4    2    3 ar
     5    2    8 1
     6    3    4 ar
     7    3   36 1
     8    4    5 ar
     9    4   37 1
    10    5    6 ar
    11    5    7 1
    12    6   38 1
    13    8    9 1
    14    8   65 1
    15    9   10 1
    16    9   34 2
    17   10   11 2
    18   11   12 1
    19   11   33 1
    20   12   13 1
    21   12   62 1
    22   13   14 1
    23   13   39 1
    24   13   40 1
    25   14   15 1
    26   14   41 1
    27   14   42 1
    28   15   16 1
    29   15   43 1
    30   15   44 1
    31   16   17 1
    32   16   45 1
    33   16   46 1
    34   17   18 1
    35   17   47 1
    36   17   48 1
    37   18   19 1
    38   18   49 1
    39   18   50 1
    40   19   20 1
    41   19   63 1
    42   20   21 1
    43   20   32 2
    44   21   22 1
    45   21   64 1
    46   22   23 2
    47   22   31 1
    48   23   24 1
    49   24   29 ar
    50   24   25 ar
    51   25   26 ar
    52   25   51 1
    53   26   27 ar
    54   26   52 1
    55   27   28 ar
    56   27   30 1
    57   28   29 ar
    58   28   53 1
    59   29   54 1
    60   31   55 1
    61   31   56 1
    62   32   57 1
    63   33   58 1
    64   33   59 1
    65   34   60 1
    66   34   61 1
@<TRIPOS>MOLECULE
ZINC18098320
   64    65     0     0     0
SMALL
NO_CHARGES

@<TRIPOS>ATOM
      1 C1         -3.5705    2.7789   -0.2130 C.ar      1 <0>        -0.1280
      2 C2         -2.6191    3.7778   -0.2220 C.ar      1 <0>        -0.0846
      3 C3         -1.2809    3.4647   -0.0544 C.ar      1 <0>        -0.0667
      4 C4         -0.8889    2.1488    0.1237 C.ar      1 <0>        -0.0841
      5 C5         -1.8309    1.1410    0.1350 C.ar      1 <0>        -0.1753
      6 C6         -3.1816    1.4502   -0.0340 C.ar      1 <0>         0.1576
      7 N1         -4.1220    0.4536   -0.0236 N.2       1 <0>        -0.6296
      8 C7         -4.0652   -0.5111   -0.9109 C.2       1 <0>         0.6754
      9 N2         -3.1757   -0.4310   -1.9591 N.pl3     1 <0>        -0.6754
     10 C8         -3.2146   -1.3689   -2.9698 C.2       1 <0>         0.6370
     11 N3         -2.2617   -1.3517   -3.9605 N.pl3     1 <0>        -0.7614
     12 C9         -2.3029   -2.3478   -5.0339 C.3       1 <0>         0.1243
     13 C10        -1.1392   -2.1074   -5.9977 C.3       1 <0>        -0.1294
     14 C11        -1.1823   -3.1477   -7.1188 C.3       1 <0>        -0.1155
     15 C12        -0.0186   -2.9073   -8.0826 C.3       1 <0>        -0.1144
     16 C13        -0.0617   -3.9476   -9.2037 C.3       1 <0>        -0.1300
     17 C14         1.1020   -3.7072  -10.1675 C.3       1 <0>         0.1416
     18 N4          1.0608   -4.7033  -11.2410 N.pl3     1 <0>        -0.7029
     19 C15         2.0137   -4.6861  -12.2317 C.2       1 <0>         0.6414
     20 N5          3.0100   -3.8498  -12.1625 N.2       1 <0>        -0.8025
     21 N6          1.9148   -5.5543  -13.2989 N.pl3     1 <0>        -0.6788
     22 C16         0.7981   -6.3476  -13.4400 C.2       1 <0>         0.6535
     23 N7          0.7582   -7.3086  -14.4190 N.pl3     1 <0>        -0.8735
     24 N8         -0.2277   -6.1847  -12.6386 N.2       1 <0>        -0.6217
     25 C17        -1.3680   -6.9209  -12.8269 C.ar      1 <0>         0.1437
     26 C18        -2.0410   -6.8705  -14.0489 C.ar      1 <0>        -0.1529
     27 C19        -3.1881   -7.6144  -14.2325 C.ar      1 <0>        -0.0887
     28 C20        -3.6725   -8.4095  -13.2077 C.ar      1 <0>        -0.0567
     29 C21        -3.0098   -8.4634  -11.9932 C.ar      1 <0>        -0.0885
     30 C22        -1.8581   -7.7289  -11.7995 C.ar      1 <0>        -0.1197
     31 Cl1        -5.1170   -9.3423  -13.4462 Cl        1 <0>        -0.0715
     32 N9         -4.1541   -2.2709   -2.9855 N.2       1 <0>        -0.8094
     33 N10        -4.8923   -1.6001   -0.7945 N.pl3     1 <0>        -0.8115
     34 Cl2        -0.0894    4.7272   -0.0680 Cl        1 <0>        -0.0763
     35 H1         -4.6145    3.0248   -0.3398 H         1 <0>         0.1328
     36 H2         -2.9187    4.8061   -0.3605 H         1 <0>         0.1330
     37 H3          0.1565    1.9108    0.2536 H         1 <0>         0.1309
     38 H4         -1.5239    0.1149    0.2736 H         1 <0>         0.1258
     39 H5         -2.2197   -3.3468   -4.6059 H         1 <0>         0.0671
     40 H6         -3.2458   -2.2612   -5.5739 H         1 <0>         0.0669
     41 H7         -1.2224   -1.1084   -6.4257 H         1 <0>         0.0727
     42 H8         -0.1963   -2.1940   -5.4577 H         1 <0>         0.0728
     43 H9         -1.0991   -4.1467   -6.6908 H         1 <0>         0.0670
     44 H10        -2.1251   -3.0611   -7.6588 H         1 <0>         0.0673
     45 H11        -0.1017   -1.9083   -8.5106 H         1 <0>         0.0666
     46 H12         0.9243   -2.9939   -7.5426 H         1 <0>         0.0667
     47 H13         0.0215   -4.9466   -8.7757 H         1 <0>         0.0660
     48 H14        -1.0045   -3.8610   -9.7437 H         1 <0>         0.0687
     49 H15         1.0189   -2.7082  -10.5955 H         1 <0>         0.0600
     50 H16         2.0449   -3.7938   -9.6275 H         1 <0>         0.0622
     51 H17         3.6417   -3.7864  -12.8958 H         1 <0>         0.3388
     52 H18         0.0948   -8.0151  -14.3784 H         1 <0>         0.4191
     53 H19         1.3936   -7.2814  -15.1515 H         1 <0>         0.4030
     54 H20        -1.6645   -6.2502  -14.8488 H         1 <0>         0.1275
     55 H21        -3.7097   -7.5763  -15.1774 H         1 <0>         0.1323
     56 H22        -3.3928   -9.0849  -11.1974 H         1 <0>         0.1350
     57 H23        -1.3396   -7.7752  -10.8532 H         1 <0>         0.1331
     58 H24        -4.1814   -2.9304   -3.6963 H         1 <0>         0.3530
     59 H25        -5.6233   -1.5880   -0.1569 H         1 <0>         0.4078
     60 H26        -4.7460   -2.3819   -1.3497 H         1 <0>         0.4274
     61 H27        -1.5620   -0.6800   -3.9488 H         1 <0>         0.3978
     62 H28         0.3611   -5.3750  -11.2527 H         1 <0>         0.4249
     63 H29         2.6319   -5.6061  -13.9500 H         1 <0>         0.4230
     64 H30        -2.5219    0.2849   -1.9866 H         1 <0>         0.4253
@<TRIPOS>BOND
     1    1    6 ar
     2    1    2 ar
     3    1   35 1
     4    2    3 ar
     5    2   36 1
     6    3    4 ar
     7    3   34 1
     8    4    5 ar
     9    4   37 1
    10    5    6 ar
    11    5   38 1
    12    6    7 1
    13    7    8 2
    14    8    9 1
    15    8   33 1
    16    9   10 1
    17    9   64 1
    18   10   11 1
    19   10   32 2
    20   11   12 1
    21   11   61 1
    22   12   13 1
    23   12   39 1
    24   12   40 1
    25   13   14 1
    26   13   41 1
    27   13   42 1
    28   14   15 1
    29   14   43 1
    30   14   44 1
    31   15   16 1
    32   15   45 1
    33   15   46 1
    34   16   17 1
    35   16   47 1
    36   16   48 1
    37   17   18 1
    38   17   49 1
    39   17   50 1
    40   18   19 1
    41   18   62 1
    42   19   20 2
    43   19   21 1
    44   20   51 1
    45   21   22 1
    46   21   63 1
    47   22   23 1
    48   22   24 2
    49   23   52 1
    50   23   53 1
    51   24   25 1
    52   25   30 ar
    53   25   26 ar
    54   26   27 ar
    55   26   54 1
    56   27   28 ar
    57   27   55 1
    58   28   29 ar
    59   28   31 1
    60   29   30 ar
    61   29   56 1
    62   30   57 1
    63   32   58 1
    64   33   59 1
    65   33   60 1
@<TRIPOS>MOLECULE
ZINC00587541
   49    52     0     0     0
SMALL
USER_CHARGES

@<TRIPOS>ATOM
      1 C1          0.3831    1.0016    0.1251 C.3       1 <0>        -0.1337
      2 C2          0.1417   -0.4858    0.1082 C.2       1 <0>         0.0470
      3 C3         -1.1777   -0.9840    0.0565 C.2       1 <0>        -0.1716
      4 C4         -1.4227   -2.3793    0.0391 C.2       1 <0>         0.2618
      5 C5         -0.3677   -3.2672    0.0728 C.2       1 <0>        -0.2657
      6 C6          0.9519   -2.7835    0.1249 C.2       1 <0>         0.2970
      7 C7          1.1922   -1.3411    0.1372 C.2       1 <0>        -0.0130
      8 F1          2.4552   -0.8637    0.1815 F         1 <0>        -0.1036
      9 N1          1.9770   -3.6343    0.1576 N.pl3     1 <0>        -0.5922
     10 C8          3.3647   -3.1491    0.1034 C.3       1 <0>         0.0096
     11 C9          4.1498   -3.7935    1.2506 C.3       1 <0>        -0.0180
     12 N2          4.0150   -5.2537    1.1750 N.4       1 <0>        -0.5069
     13 C10         2.6143   -5.6384    1.3898 C.3       1 <0>         0.0141
     14 H1          2.2667   -5.2301    2.3388 H         1 <0>         0.1457
     15 C11         1.7533   -5.0850    0.2552 C.3       1 <0>         0.0829
     16 C12         2.5031   -7.1641    1.4196 C.3       1 <0>        -0.1835
     17 N3         -2.7200   -2.8490   -0.0120 N.pl3     1 <0>        -0.4115
     18 C13        -3.7618   -2.0069   -0.0459 C.2       1 <0>         0.2427
     19 C14        -3.5779   -0.6344   -0.0309 C.2       1 <0>        -0.2914
     20 C15        -2.2684   -0.0986    0.0211 C.2       1 <0>         0.3604
     21 O1         -2.0714    1.2369    0.0368 O.3       1 <0>        -0.4243
     22 C16        -4.7397    0.2643   -0.0694 C.2       1 <0>         0.5381
     23 O2         -5.8717   -0.1961   -0.0046 O.co2     1 <0>        -0.6330
     24 O3         -4.5753    1.4731   -0.1664 O.co2     1 <0>        -0.6511
     25 C17        -2.9618   -4.2938   -0.0301 C.3       1 <0>         0.0050
     26 C18        -4.3933   -4.7673   -0.2899 C.3       1 <0>        -0.1642
     27 C19        -3.7908   -4.8856    1.1115 C.3       1 <0>        -0.1644
     28 H2          1.4551    1.1953    0.1610 H         1 <0>         0.0825
     29 H3         -0.0368    1.4481   -0.7763 H         1 <0>         0.1064
     30 H4         -0.0945    1.4373    1.0027 H         1 <0>         0.1049
     31 H5         -0.5544   -4.3309    0.0595 H         1 <0>         0.1585
     32 H6          3.8135   -3.4284   -0.8499 H         1 <0>         0.1033
     33 H7          3.3782   -2.0648    0.2141 H         1 <0>         0.1923
     34 H8          5.2021   -3.5210    1.1691 H         1 <0>         0.1527
     35 H9          3.7558   -3.4410    2.2038 H         1 <0>         0.1371
     36 H10         4.3140   -5.5712    0.2651 H         1 <0>         0.4283
     37 H11         0.7018   -5.2800    0.4662 H         1 <0>         0.1337
     38 H12         2.0365   -5.5632   -0.6824 H         1 <0>         0.1072
     39 H13         3.1163   -7.5573    2.2305 H         1 <0>         0.0924
     40 H14         1.4633   -7.4495    1.5791 H         1 <0>         0.1113
     41 H15         2.8505   -7.5723    0.4705 H         1 <0>         0.0872
     42 H16        -4.7645   -2.4064   -0.0861 H         1 <0>         0.2086
     43 H17        -2.1500   -4.9014   -0.4301 H         1 <0>         0.1566
     44 H18        -5.1551   -4.0038   -0.4474 H         1 <0>         0.1205
     45 H19        -4.5235   -5.6865   -0.8610 H         1 <0>         0.1299
     46 H20        -3.5247   -5.8827    1.4624 H         1 <0>         0.1239
     47 H21        -4.1563   -4.2000    1.8760 H         1 <0>         0.1141
     48 H22         4.5923   -5.6807    1.8839 H         1 <0>         0.4355
     49 H23        -2.8862    1.7539    0.0997 H         1 <0>         0.4368
@<TRIPOS>BOND
     1    1    2 1
     2    1   28 1
     3    1   29 1
     4    1   30 1
     5    2    7 2
     6    2    3 1
     7    3   20 2
     8    3    4 1
     9    4    5 2
    10    4   17 1
    11    5    6 1
    12    5   31 1
    13    6    7 1
    14    6    9 2
    15    7    8 1
    16    9   15 1
    17    9   10 1
    18   10   11 1
    19   10   32 1
    20   10   33 1
    21   11   12 1
    22   11   34 1
    23   11   35 1
    24   12   13 1
    25   12   36 1
    26   12   48 1
    27   13   14 1
    28   13   15 1
    29   13   16 1
    30   15   37 1
    31   15   38 1
    32   16   39 1
    33   16   40 1
    34   16   41 1
    35   17   18 1
    36   17   25 1
    37   18   19 2
    38   18   42 1
    39   19   20 1
    40   19   22 1
    41   20   21 1
    42   21   49 1
    43   22   23 2
    44   22   24 1
    45   25   27 1
    46   25   26 1
    47   25   43 1
    48   26   27 1
    49   26   44 1
    50   26   45 1
    51   27   46 1
    52   27   47 1
@<TRIPOS>MOLECULE
ZINC03830910
   32    33     0     0     0
SMALL
USER_CHARGES
(5S)-5-(1-cyclohexenyl)-1,5-dimethyl-hexahydropyrimidine-2,4,6-trione
@<TRIPOS>ATOM
      1 C1          2.0930    1.6092    1.2271 C.3       1 <0>        -0.1191
      2 C2          1.2719    2.0124    0.0007 C.3       1 <0>        -0.1301
      3 C3          1.1190    3.5216    0.0103 C.2       1 <0>         0.5251
      4 O1          2.0869    4.2516    0.0046 O.3       1 <0>        -0.5469
      5 N1         -0.1348    4.0217    0.0250 N.2       1 <0>        -0.7141
      6 C4         -1.2132    3.2298    0.0315 C.2       1 <0>         0.6645
      7 O2         -2.3041    3.7642    0.0452 O.2       1 <0>        -0.5894
      8 N2         -1.1780    1.8924    0.0178 N.am      1 <0>        -0.5902
      9 C5         -0.0144    1.2081    0.0087 C.2       1 <0>         0.5468
     10 O3          0.0021   -0.0041    0.0020 O.2       1 <0>        -0.5240
     11 C6         -2.4399    1.1483    0.0190 C.3       1 <0>         0.0749
     12 C7          2.0550    1.6323   -1.2295 C.2       1 <0>        -0.0813
     13 C8          1.5448    0.7470   -2.0242 C.2       1 <0>        -0.1816
     14 C9          2.2092    0.2613   -3.2791 C.3       1 <0>        -0.0817
     15 C10         3.3162    1.2309   -3.6986 C.3       1 <0>        -0.1231
     16 C11         4.2005    1.5151   -2.4779 C.3       1 <0>        -0.1175
     17 C12         3.3749    2.3081   -1.4601 C.3       1 <0>        -0.0716
     18 H1          3.0328    2.1806    1.2431 H         1 <0>         0.0771
     19 H2          2.3185    0.5336    1.1799 H         1 <0>         0.0640
     20 H3          1.5179    1.8235    2.1400 H         1 <0>         0.0533
     21 H4         -2.2290    0.0688    0.0067 H         1 <0>         0.0802
     22 H5         -3.0253    1.4178   -0.8725 H         1 <0>         0.0647
     23 H6         -3.0129    1.3997    0.9237 H         1 <0>         0.0647
     24 H7          0.5649    0.3024   -1.7957 H         1 <0>         0.1181
     25 H8          2.6480   -0.7316   -3.1010 H         1 <0>         0.0684
     26 H9          1.4644    0.1937   -4.0858 H         1 <0>         0.0648
     27 H10         3.9169    0.7768   -4.5005 H         1 <0>         0.0588
     28 H11         2.8659    2.1662   -4.0626 H         1 <0>         0.0631
     29 H12         4.5318    0.5639   -2.0358 H         1 <0>         0.0601
     30 H13         5.0784    2.1002   -2.7893 H         1 <0>         0.0624
     31 H14         3.2042    3.3239   -1.8462 H         1 <0>         0.0842
     32 H15         3.9286    2.3647   -0.5113 H         1 <0>         0.0754
@<TRIPOS>BOND
     1    1    2 1
     2    1   18 1
     3    1   19 1
     4    1   20 1
     5    2    9 1
     6    2    3 1
     7    2   12 1
     8    3    4 1
     9    3    5 2
    10    5    6 1
    11    6    7 2
    12    6    8 am
    13    8    9 am
    14    8   11 1
    15    9   10 2
    16   11   21 1
    17   11   22 1
    18   11   23 1
    19   12   17 1
    20   12   13 2
    21   13   14 1
    22   13   24 1
    23   14   15 1
    24   14   25 1
    25   14   26 1
    26   15   16 1
    27   15   27 1
    28   15   28 1
    29   16   17 1
    30   16   29 1
    31   16   30 1
    32   17   31 1
    33   17   32 1
@<TRIPOS>MOLECULE
ZINC16052277
   55    58     0     0     0
SMALL
USER_CHARGES

@<TRIPOS>ATOM
      1 C1         -0.6328    1.2207   -0.2307 C.3       1 <0>        -0.1568
      2 C2         -0.5416   -0.3057   -0.1774 C.3       1 <0>        -0.0447
      3 H1         -1.5278   -0.7193    0.0334 H         1 <0>         0.0815
      4 C3         -0.0566   -0.8234   -1.5056 C.ar      1 <0>        -0.0364
      5 C4         -0.2322   -0.0811   -2.6523 C.ar      1 <0>        -0.1467
      6 C5          0.2034   -0.5722   -3.8730 C.ar      1 <0>        -0.1070
      7 C6          0.8163   -1.8075   -3.9542 C.ar      1 <0>        -0.1696
      8 C7          1.0062   -2.5664   -2.8088 C.ar      1 <0>         0.1405
      9 C8          0.5729   -2.0694   -1.5721 C.ar      1 <0>        -0.1089
     10 C9          0.7920   -2.8346   -0.3359 C.2       1 <0>         0.3431
     11 O1          1.0914   -4.1506   -0.3942 O.3       1 <0>        -0.5886
     12 C10         0.6899   -2.1972    0.8865 C.2       1 <0>        -0.5023
     13 C11         0.8298   -2.9475    2.0493 C.2       1 <0>         0.3781
     14 C12         0.7622   -2.3623    3.4285 C.3       1 <0>         0.0970
     15 C13         0.7570   -0.8520    3.3908 C.3       1 <0>        -0.1040
     16 H2          1.7660   -0.5309    3.1323 H         1 <0>         0.0954
     17 C14        -0.1746   -0.3439    2.2914 C.3       1 <0>         0.1256
     18 H3         -1.1550   -0.8079    2.3993 H         1 <0>         0.1128
     19 C15         0.4266   -0.7165    0.9294 C.3       1 <0>         0.0007
     20 H4          1.3663   -0.1788    0.8027 H         1 <0>         0.0442
     21 O2         -0.3026    1.0760    2.3896 O.3       1 <0>        -0.5510
     22 C16         0.4064   -0.2107    4.7191 C.3       1 <0>         0.0027
     23 H5          0.2620    0.8597    4.5722 H         1 <0>         0.1500
     24 C17        -0.8496   -0.8033    5.2922 C.2       1 <0>         0.3818
     25 O3         -1.5960   -0.1191    5.9614 O.2       1 <0>        -0.5200
     26 C18        -1.1690   -2.2063    5.0402 C.2       1 <0>        -0.5004
     27 C19        -0.4088   -2.9351    4.1665 C.2       1 <0>         0.3164
     28 O4         -0.7429   -4.2152    3.9462 O.3       1 <0>        -0.5249
     29 C20        -2.3007   -2.8387    5.7365 C.2       1 <0>         0.5851
     30 O5         -2.6337   -3.9731    5.4504 O.2       1 <0>        -0.5508
     31 N1         -2.9682   -2.1609    6.6913 N.am      1 <0>        -0.8765
     32 N2          1.5120   -0.4225    5.6630 N.4       1 <0>        -0.3723
     33 C21         2.7010    0.3023    5.1950 C.3       1 <0>        -0.0460
     34 C22         1.1254    0.0758    6.9897 C.3       1 <0>        -0.0459
     35 O6          1.9468   -2.7567    4.1236 O.3       1 <0>        -0.5787
     36 O7          1.0177   -4.1439    1.9417 O.2       1 <0>        -0.4696
     37 O8          1.6065   -3.7807   -2.8851 O.3       1 <0>        -0.4721
     38 H6          0.3680    1.6412   -0.3295 H         1 <0>         0.0474
     39 H7         -1.2383    1.5188   -1.0866 H         1 <0>         0.0484
     40 H8         -1.0930    1.5894    0.6860 H         1 <0>         0.0863
     41 H9         -0.7107    0.8857   -2.6003 H         1 <0>         0.1245
     42 H10         0.0628    0.0158   -4.7679 H         1 <0>         0.1178
     43 H11         1.1477   -2.1831   -4.9110 H         1 <0>         0.1207
     44 H12         0.5192    1.5575    2.2226 H         1 <0>         0.3659
     45 H13        -2.7485   -1.2334    6.8711 H         1 <0>         0.3990
     46 H14        -3.6682   -2.6007    7.1987 H         1 <0>         0.3785
     47 H15         3.5419    0.0842    5.8534 H         1 <0>         0.1167
     48 H16         2.9428   -0.0132    4.1801 H         1 <0>         0.1254
     49 H17         2.5005    1.3737    5.2044 H         1 <0>         0.1142
     50 H18         0.2431   -0.4620    7.3369 H         1 <0>         0.1236
     51 H19         1.9457   -0.0814    7.6900 H         1 <0>         0.1143
     52 H20         0.9004    1.1405    6.9266 H         1 <0>         0.1178
     53 H21         2.0539   -3.7142    4.2065 H         1 <0>         0.4025
     54 H22         2.5678   -3.7512   -2.7850 H         1 <0>         0.3820
     55 H23         1.7202   -1.4080    5.7214 H         1 <0>         0.4336
@<TRIPOS>BOND
     1    1    2 1
     2    1   38 1
     3    1   39 1
     4    1   40 1
     5    2    3 1
     6    2   19 1
     7    2    4 1
     8    4    9 ar
     9    4    5 ar
    10    5    6 ar
    11    5   41 1
    12    6    7 ar
    13    6   42 1
    14    7    8 ar
    15    7   43 1
    16    8    9 ar
    17    8   37 1
    18    9   10 1
    19   10   11 1
    20   10   12 2
    21   12   19 1
    22   12   13 1
    23   13   14 1
    24   13   36 2
    25   14   27 1
    26   14   15 1
    27   14   35 1
    28   15   16 1
    29   15   17 1
    30   15   22 1
    31   17   18 1
    32   17   19 1
    33   17   21 1
    34   19   20 1
    35   21   44 1
    36   22   23 1
    37   22   24 1
    38   22   32 1
    39   24   25 2
    40   24   26 1
    41   26   27 2
    42   26   29 1
    43   27   28 1
    44   29   30 2
    45   29   31 am
    46   31   45 1
    47   31   46 1
    48   32   33 1
    49   32   34 1
    50   32   55 1
    51   33   47 1
    52   33   48 1
    53   33   49 1
    54   34   50 1
    55   34   51 1
    56   34   52 1
    57   35   53 1
    58   37   54 1
@<TRIPOS>MOLECULE
ZINC18202350
   57    60     0     0     0
SMALL
USER_CHARGES

@<TRIPOS>ATOM
      1 C1          0.2017    1.9635    0.3407 C.3       1 <0>        -0.1919
      2 C2         -0.1444    0.4772    0.2308 C.3       1 <0>         0.1823
      3 C3          0.2366   -0.0240   -1.1372 C.ar      1 <0>        -0.0646
      4 C4          0.3216    0.8547   -2.1965 C.ar      1 <0>        -0.1328
      5 C5          0.6583    0.3950   -3.4589 C.ar      1 <0>        -0.0755
      6 C6          0.9111   -0.9460   -3.6718 C.ar      1 <0>        -0.1528
      7 C7          0.8358   -1.8429   -2.6163 C.ar      1 <0>         0.1612
      8 C8          0.5020   -1.3792   -1.3378 C.ar      1 <0>        -0.1693
      9 C9          0.4497   -2.3124   -0.1948 C.2       1 <0>         0.4313
     10 O1          0.4469   -3.5165   -0.3776 O.2       1 <0>        -0.4127
     11 C10         0.4031   -1.7789    1.1274 C.2       1 <0>        -0.2188
     12 C11         0.1695   -2.6114    2.1459 C.2       1 <0>         0.1636
     13 C12         0.1094   -2.1841    3.5875 C.3       1 <0>         0.1024
     14 C13         0.7406   -0.7984    3.7272 C.3       1 <0>        -0.1196
     15 H1          1.8057   -0.8888    3.5137 H         1 <0>         0.1051
     16 C14         0.1278    0.1404    2.6918 C.3       1 <0>         0.1285
     17 H2         -0.9595    0.0804    2.7383 H         1 <0>         0.1372
     18 C15         0.6114   -0.2991    1.3069 C.3       1 <0>        -0.0440
     19 H3          1.6754   -0.0774    1.2238 H         1 <0>         0.1036
     20 O2          0.5485    1.4819    2.9477 O.3       1 <0>        -0.5298
     21 C16         0.5862   -0.2511    5.1326 C.3       1 <0>         0.0408
     22 H4          0.8938    0.7945    5.1406 H         1 <0>         0.1550
     23 C17        -0.8259   -0.3463    5.6273 C.2       1 <0>         0.3085
     24 C18        -1.7366   -1.2160    5.0809 C.2       1 <0>        -0.4772
     25 C19        -1.3536   -2.0751    3.9740 C.2       1 <0>         0.3787
     26 O3         -2.2033   -2.6818    3.3550 O.2       1 <0>        -0.4708
     27 C20        -3.1006   -1.2875    5.6284 C.2       1 <0>         0.5875
     28 O4         -3.4484   -0.5115    6.4981 O.2       1 <0>        -0.5495
     29 N1         -3.9646   -2.2130    5.1663 N.am      1 <0>        -0.8688
     30 O5         -1.2125    0.4451    6.6387 O.3       1 <0>        -0.5594
     31 N2          1.4585   -1.0107    6.0382 N.4       1 <0>        -0.3728
     32 C21         2.8565   -0.8591    5.6130 C.3       1 <0>        -0.0500
     33 C22         1.3052   -0.5013    7.4075 C.3       1 <0>        -0.0509
     34 O6          0.7771   -3.1350    4.4193 O.3       1 <0>        -0.5533
     35 O7         -0.0248   -3.9153    1.8645 O.3       1 <0>        -0.4406
     36 O8          1.0829   -3.1611   -2.8215 O.3       1 <0>        -0.4771
     37 O9         -1.5500    0.3033    0.4209 O.3       1 <0>        -0.5389
     38 H5          1.2843    2.0874    0.3127 H         1 <0>         0.0672
     39 H6         -0.2475    2.5037   -0.4927 H         1 <0>         0.0658
     40 H7         -0.1850    2.3581    1.2802 H         1 <0>         0.1015
     41 H8          0.1247    1.9052   -2.0413 H         1 <0>         0.1384
     42 H9          0.7234    1.0902   -4.2829 H         1 <0>         0.1348
     43 H10         1.1680   -1.2965   -4.6606 H         1 <0>         0.1372
     44 H11         1.4991    1.6232    2.8408 H         1 <0>         0.3716
     45 H12        -3.6644   -2.8830    4.5323 H         1 <0>         0.4003
     46 H13        -4.8866   -2.2091    5.4676 H         1 <0>         0.3867
     47 H14         3.5113   -1.3411    6.3389 H         1 <0>         0.1217
     48 H15         2.9917   -1.3243    4.6366 H         1 <0>         0.1181
     49 H16         3.1036    0.2005    5.5480 H         1 <0>         0.1183
     50 H17         0.2680   -0.6138    7.7230 H         1 <0>         0.1412
     51 H18         1.9525   -1.0649    8.0794 H         1 <0>         0.1130
     52 H19         1.5814    0.5527    7.4361 H         1 <0>         0.1186
     53 H20         0.4012   -4.0251    4.3792 H         1 <0>         0.4062
     54 H21         0.5732   -4.5124    2.3346 H         1 <0>         0.3899
     55 H22         2.0102   -3.4099   -2.7066 H         1 <0>         0.3928
     56 H23        -2.0954    0.7729   -0.2249 H         1 <0>         0.3836
     57 H24         1.2029   -1.9864    6.0117 H         1 <0>         0.4284
@<TRIPOS>BOND
     1    1    2 1
     2    1   38 1
     3    1   39 1
     4    1   40 1
     5    2   18 1
     6    2    3 1
     7    2   37 1
     8    3    8 ar
     9    3    4 ar
    10    4    5 ar
    11    4   41 1
    12    5    6 ar
    13    5   42 1
    14    6    7 ar
    15    6   43 1
    16    7    8 ar
    17    7   36 1
    18    8    9 1
    19    9   10 2
    20    9   11 1
    21   11   18 1
    22   11   12 2
    23   12   13 1
    24   12   35 1
    25   13   25 1
    26   13   14 1
    27   13   34 1
    28   14   15 1
    29   14   16 1
    30   14   21 1
    31   16   17 1
    32   16   18 1
    33   16   20 1
    34   18   19 1
    35   20   44 1
    36   21   22 1
    37   21   23 1
    38   21   31 1
    39   23   24 2
    40   23   30 1
    41   24   25 1
    42   24   27 1
    43   25   26 2
    44   27   28 2
    45   27   29 am
    46   29   45 1
    47   29   46 1
    48   31   32 1
    49   31   33 1
    50   31   57 1
    51   32   47 1
    52   32   48 1
    53   32   49 1
    54   33   50 1
    55   33   51 1
    56   33   52 1
    57   34   53 1
    58   35   54 1
    59   36   55 1
    60   37   56 1
@<TRIPOS>MOLECULE
ZINC01532734
   43    42     0     0     0
SMALL
USER_CHARGES

@<TRIPOS>ATOM
      1 C1         -0.0187    1.5258    0.0104 C.3       1 <0>        -0.1498
      2 C2          0.0021   -0.0041    0.0020 C.3       1 <0>        -0.1503
      3 C3         -1.4333   -0.5336    0.0129 C.3       1 <0>        -0.0094
      4 N1         -1.4134   -2.0025    0.0048 N.4       1 <0>        -0.5097
      5 C4         -2.7915   -2.5110    0.0152 C.3       1 <0>        -0.0075
      6 C5         -2.7708   -4.0408    0.0068 C.3       1 <0>        -0.1524
      7 C6         -4.2062   -4.5704    0.0177 C.3       1 <0>         0.0629
      8 N2         -4.1863   -6.0392    0.0096 N.3       1 <0>        -0.8529
      9 C7          1.4167    2.0553   -0.0004 C.3       1 <0>        -0.0099
     10 N3          1.3968    3.5242    0.0076 N.4       1 <0>        -0.5104
     11 C8          2.7749    4.0327   -0.0028 C.3       1 <0>        -0.0049
     12 C9          2.7542    5.5625    0.0056 C.3       1 <0>        -0.1880
     13 C10         4.1896    6.0921   -0.0052 C.3       1 <0>        -0.0023
     14 N4          4.1697    7.5609    0.0029 N.4       1 <0>        -0.6386
     15 H1         -0.5459    1.8868   -0.8726 H         1 <0>         0.1016
     16 H2         -0.5289    1.8773    0.9072 H         1 <0>         0.1013
     17 H3          0.5123   -0.3556   -0.8948 H         1 <0>         0.1012
     18 H4          0.5293   -0.3651    0.8851 H         1 <0>         0.1008
     19 H5         -1.9435   -0.1821    0.9097 H         1 <0>         0.1360
     20 H6         -1.9605   -0.1726   -0.8702 H         1 <0>         0.1366
     21 H7         -0.9411   -2.3279   -0.8254 H         1 <0>         0.4321
     22 H8         -3.3017   -2.1594    0.9120 H         1 <0>         0.1341
     23 H9         -3.3187   -2.1499   -0.8678 H         1 <0>         0.1364
     24 H10        -2.2606   -4.3923   -0.8900 H         1 <0>         0.0983
     25 H11        -2.2436   -4.4019    0.8899 H         1 <0>         0.0873
     26 H12        -4.7164   -4.2189    0.9145 H         1 <0>         0.0384
     27 H13        -4.7334   -4.2093   -0.8654 H         1 <0>         0.0835
     28 H14        -3.6478   -6.3978    0.7839 H         1 <0>         0.3472
     29 H15         1.9439    1.6943    0.8826 H         1 <0>         0.1402
     30 H16         1.9269    1.7038   -0.8972 H         1 <0>         0.1404
     31 H17         0.9088    3.8584   -0.8098 H         1 <0>         0.4344
     32 H18         3.3021    3.6716    0.8803 H         1 <0>         0.1456
     33 H19         3.2851    3.6811   -0.8996 H         1 <0>         0.1457
     34 H20         2.2270    5.9236   -0.8774 H         1 <0>         0.1137
     35 H21         2.2440    5.9140    0.9024 H         1 <0>         0.1136
     36 H22         4.7168    5.7310    0.8778 H         1 <0>         0.1458
     37 H23         4.6998    5.7406   -0.9020 H         1 <0>         0.1458
     38 H24         3.6817    7.8952   -0.8146 H         1 <0>         0.4411
     39 H25         3.6974    7.8863    0.8330 H         1 <0>         0.4410
     40 H26        -0.9254   -2.3367    0.8222 H         1 <0>         0.4310
     41 H27         5.1163    7.9102   -0.0043 H         1 <0>         0.4534
     42 H28         0.9245    3.8496    0.8378 H         1 <0>         0.4344
     43 H29        -5.1232   -6.4136    0.0165 H         1 <0>         0.3624
@<TRIPOS>BOND
     1    1    2 1
     2    1    9 1
     3    1   15 1
     4    1   16 1
     5    2    3 1
     6    2   17 1
     7    2   18 1
     8    3    4 1
     9    3   19 1
    10    3   20 1
    11    4    5 1
    12    4   21 1
    13    4   40 1
    14    5    6 1
    15    5   22 1
    16    5   23 1
    17    6    7 1
    18    6   24 1
    19    6   25 1
    20    7    8 1
    21    7   26 1
    22    7   27 1
    23    8   28 1
    24    8   43 1
    25    9   10 1
    26    9   29 1
    27    9   30 1
    28   10   11 1
    29   10   31 1
    30   10   42 1
    31   11   12 1
    32   11   32 1
    33   11   33 1
    34   12   13 1
    35   12   34 1
    36   12   35 1
    37   13   14 1
    38   13   36 1
    39   13   37 1
    40   14   38 1
    41   14   39 1
    42   14   41 1
@<TRIPOS>MOLECULE
ZINC01532734
   43    42     0     0     0
SMALL
USER_CHARGES

@<TRIPOS>ATOM
      1 C1         -0.0187    1.5258    0.0104 C.3       1 <0>        -0.1499
      2 C2          0.0021   -0.0041    0.0020 C.3       1 <0>        -0.1184
      3 C3         -1.4333   -0.5336    0.0129 C.3       1 <0>         0.0565
      4 N1         -1.4134   -2.0025    0.0048 N.3       1 <0>        -0.6914
      5 C4         -2.7775   -2.5475    0.0149 C.3       1 <0>         0.0596
      6 C5         -2.7159   -4.0763    0.0061 C.3       1 <0>        -0.1535
      7 C6         -4.1367   -4.6440    0.0166 C.3       1 <0>        -0.0070
      8 N2         -4.0776   -6.1118    0.0082 N.4       1 <0>        -0.6376
      9 C7          1.4167    2.0553   -0.0004 C.3       1 <0>        -0.0091
     10 N3          1.3968    3.5242    0.0076 N.4       1 <0>        -0.5103
     11 C8          2.7749    4.0327   -0.0028 C.3       1 <0>        -0.0050
     12 C9          2.7542    5.5625    0.0056 C.3       1 <0>        -0.1876
     13 C10         4.1896    6.0921   -0.0052 C.3       1 <0>        -0.0023
     14 N4          4.1697    7.5609    0.0029 N.4       1 <0>        -0.6384
     15 H1         -0.5459    1.8868   -0.8726 H         1 <0>         0.0896
     16 H2         -0.5289    1.8773    0.9072 H         1 <0>         0.0921
     17 H3          0.5123   -0.3556   -0.8948 H         1 <0>         0.0760
     18 H4          0.5293   -0.3651    0.8851 H         1 <0>         0.0871
     19 H5         -1.9435   -0.1821    0.9097 H         1 <0>         0.0806
     20 H6         -1.9605   -0.1726   -0.8702 H         1 <0>         0.0388
     21 H7         -3.2970   -2.2100    0.9117 H         1 <0>         0.0863
     22 H8         -3.3140   -2.2004   -0.8682 H         1 <0>         0.0447
     23 H9         -2.1964   -4.4138   -0.8907 H         1 <0>         0.0880
     24 H10        -2.1794   -4.4234    0.8891 H         1 <0>         0.0991
     25 H11        -4.6562   -4.3064    0.9134 H         1 <0>         0.1361
     26 H12        -4.6732   -4.2969   -0.8664 H         1 <0>         0.1337
     27 H13        -3.5967   -6.4242   -0.8220 H         1 <0>         0.4366
     28 H14        -3.5809   -6.4331    0.8256 H         1 <0>         0.4377
     29 H15         1.9439    1.6943    0.8826 H         1 <0>         0.1378
     30 H16         1.9269    1.7038   -0.8972 H         1 <0>         0.1364
     31 H17         0.9088    3.8584   -0.8098 H         1 <0>         0.4322
     32 H18         3.3021    3.6716    0.8803 H         1 <0>         0.1444
     33 H19         3.2851    3.6811   -0.8996 H         1 <0>         0.1440
     34 H20         2.2270    5.9236   -0.8774 H         1 <0>         0.1126
     35 H21         2.2440    5.9140    0.9024 H         1 <0>         0.1129
     36 H22         4.7168    5.7310    0.8778 H         1 <0>         0.1456
     37 H23         4.6998    5.7406   -0.9020 H         1 <0>         0.1455
     38 H24         3.6817    7.8952   -0.8146 H         1 <0>         0.4406
     39 H25         3.6974    7.8863    0.8330 H         1 <0>         0.4406
     40 H26        -0.8899   -2.3527   -0.7835 H         1 <0>         0.3476
     41 H27         5.1163    7.9102   -0.0043 H         1 <0>         0.4522
     42 H28         0.9245    3.8496    0.8378 H         1 <0>         0.4327
     43 H29        -5.0145   -6.4861    0.0151 H         1 <0>         0.4431
@<TRIPOS>BOND
     1    1    2 1
     2    1    9 1
     3    1   15 1
     4    1   16 1
     5    2    3 1
     6    2   17 1
     7    2   18 1
     8    3    4 1
     9    3   19 1
    10    3   20 1
    11    4    5 1
    12    4   40 1
    13    5    6 1
    14    5   21 1
    15    5   22 1
    16    6    7 1
    17    6   23 1
    18    6   24 1
    19    7    8 1
    20    7   25 1
    21    7   26 1
    22    8   27 1
    23    8   28 1
    24    8   43 1
    25    9   10 1
    26    9   29 1
    27    9   30 1
    28   10   11 1
    29   10   31 1
    30   10   42 1
    31   11   12 1
    32   11   32 1
    33   11   33 1
    34   12   13 1
    35   12   34 1
    36   12   35 1
    37   13   14 1
    38   13   36 1
    39   13   37 1
    40   14   38 1
    41   14   39 1
    42   14   41 1
@<TRIPOS>MOLECULE
ZINC12504524
   70    72     0     0     0
SMALL
USER_CHARGES

@<TRIPOS>ATOM
      1 C1          1.7242    1.6927    0.3229 C.3       1 <0>        -0.1573
      2 C2          1.7116    0.1634    0.3660 C.3       1 <0>         0.0602
      3 O1          1.8541   -0.3517   -0.9593 O.3       1 <0>        -0.3295
      4 C3          1.8622   -1.6869   -1.0966 C.2       1 <0>         0.4515
      5 O2          1.7519   -2.3949   -0.1238 O.2       1 <0>        -0.4856
      6 C4          2.0089   -2.3029   -2.4641 C.3       1 <0>        -0.0037
      7 N1          1.9884   -3.7670   -2.3465 N.4       1 <0>        -0.4880
      8 C5          2.1313   -4.3675   -3.6795 C.3       1 <0>         0.0138
      9 H1          3.0325   -3.9824   -4.1567 H         1 <0>         0.1619
     10 C6          0.9114   -4.0128   -4.5321 C.3       1 <0>        -0.1043
     11 C7         -0.3380   -4.6559   -3.9271 C.3       1 <0>        -0.1337
     12 C8         -1.5579   -4.3013   -4.7797 C.3       1 <0>        -0.1178
     13 C9         -1.3542   -4.8231   -6.2035 C.3       1 <0>        -0.1270
     14 C10        -0.1047   -4.1800   -6.8085 C.3       1 <0>        -0.1188
     15 C11         1.1152   -4.5346   -5.9559 C.3       1 <0>        -0.1173
     16 C12         2.2336   -5.8652   -3.5475 C.2       1 <0>         0.5335
     17 O3          1.6943   -6.4304   -2.6198 O.2       1 <0>        -0.4785
     18 N2          2.9245   -6.5765   -4.4603 N.am      1 <0>        -0.6159
     19 C13         3.7656   -6.2690   -5.6268 C.3       1 <0>         0.0908
     20 C14         4.4982   -7.5951   -5.3801 C.3       1 <0>        -0.1393
     21 C15         3.1743   -8.0016   -4.7242 C.3       1 <0>         0.1169
     22 H2          2.4630   -8.4452   -5.4208 H         1 <0>         0.1287
     23 C16         3.3538   -8.8213   -3.4724 C.2       1 <0>         0.5034
     24 O4          3.2859   -8.2896   -2.3845 O.2       1 <0>        -0.5071
     25 N3          3.5899  -10.1452   -3.5619 N.am      1 <0>        -0.7201
     26 C17         3.7644  -10.9420   -2.3450 C.3       1 <0>         0.1629
     27 C18         4.0139  -12.3806   -2.7181 C.ar      1 <0>        -0.1000
     28 C19         2.9472  -13.2494   -2.8640 C.ar      1 <0>        -0.1002
     29 C20         3.1692  -14.5678   -3.2055 C.ar      1 <0>        -0.0711
     30 C21         4.4722  -15.0239   -3.4036 C.ar      1 <0>        -0.0340
     31 C22         5.5435  -14.1432   -3.2550 C.ar      1 <0>        -0.0947
     32 C23         5.3083  -12.8257   -2.9188 C.ar      1 <0>        -0.0985
     33 C24         4.7174  -16.4373   -3.7696 C.2       1 <0>         0.4041
     34 N4          3.7165  -17.2565   -3.9071 N.2       1 <0>        -0.4119
     35 O5          3.9509  -18.6083   -4.2572 O.3       1 <0>        -0.4182
     36 N5          6.0122  -16.8872   -3.9656 N.pl3     1 <0>        -0.8689
     37 H3          2.6678    2.0365   -0.1009 H         1 <0>         0.0723
     38 H4          0.8985    2.0457   -0.2949 H         1 <0>         0.0723
     39 H5          1.6155    2.0856    1.3338 H         1 <0>         0.0921
     40 H6          2.5373   -0.1896    0.9837 H         1 <0>         0.0804
     41 H7          0.7680   -0.1803    0.7898 H         1 <0>         0.0804
     42 H8          1.1849   -1.9778   -3.0993 H         1 <0>         0.1773
     43 H9          2.9542   -1.9870   -2.9054 H         1 <0>         0.1791
     44 H10         2.7511   -4.0679   -1.7585 H         1 <0>         0.4410
     45 H11         0.7874   -2.9301   -4.5562 H         1 <0>         0.1099
     46 H12        -0.2140   -5.7386   -3.9030 H         1 <0>         0.0854
     47 H13        -0.4832   -4.2842   -2.9128 H         1 <0>         0.0601
     48 H14        -2.4481   -4.7595   -4.3487 H         1 <0>         0.0758
     49 H15        -1.6820   -3.2186   -4.8039 H         1 <0>         0.0689
     50 H16        -1.2302   -5.9058   -6.1793 H         1 <0>         0.0653
     51 H17        -2.2233   -4.5704   -6.8109 H         1 <0>         0.0738
     52 H18         0.0404   -4.5517   -7.8228 H         1 <0>         0.0770
     53 H19        -0.2288   -3.0973   -6.8326 H         1 <0>         0.0700
     54 H20         2.0053   -4.0764   -6.3869 H         1 <0>         0.0793
     55 H21         1.2392   -5.6173   -5.9317 H         1 <0>         0.0765
     56 H22         3.2133   -6.2465   -6.5663 H         1 <0>         0.1067
     57 H23         4.3972   -5.3917   -5.4874 H         1 <0>         0.0923
     58 H24         4.7382   -8.1488   -6.2878 H         1 <0>         0.1139
     59 H25         5.3339   -7.5213   -4.6841 H         1 <0>         0.1070
     60 H26         3.6442  -10.5704   -4.4320 H         1 <0>         0.4045
     61 H27         4.6147  -10.5605   -1.7798 H         1 <0>         0.0806
     62 H28         2.8635  -10.8758   -1.7351 H         1 <0>         0.0812
     63 H29         1.9387  -12.8951   -2.7100 H         1 <0>         0.1321
     64 H30         2.3357  -15.2451   -3.3188 H         1 <0>         0.1425
     65 H31         6.5547  -14.4907   -3.4067 H         1 <0>         0.1302
     66 H32         6.1366  -12.1417   -2.8080 H         1 <0>         0.1320
     67 H33         3.1466  -19.1393   -4.3361 H         1 <0>         0.4041
     68 H34         6.7586  -16.2763   -3.8631 H         1 <0>         0.3963
     69 H35         6.1728  -17.8133   -4.2054 H         1 <0>         0.4117
     70 H36         1.1133   -4.0594   -1.9380 H         1 <0>         0.4413
@<TRIPOS>BOND
     1    1    2 1
     2    1   37 1
     3    1   38 1
     4    1   39 1
     5    2    3 1
     6    2   40 1
     7    2   41 1
     8    3    4 1
     9    4    5 2
    10    4    6 1
    11    6    7 1
    12    6   42 1
    13    6   43 1
    14    7    8 1
    15    7   44 1
    16    7   70 1
    17    8    9 1
    18    8   10 1
    19    8   16 1
    20   10   15 1
    21   10   11 1
    22   10   45 1
    23   11   12 1
    24   11   46 1
    25   11   47 1
    26   12   13 1
    27   12   48 1
    28   12   49 1
    29   13   14 1
    30   13   50 1
    31   13   51 1
    32   14   15 1
    33   14   52 1
    34   14   53 1
    35   15   54 1
    36   15   55 1
    37   16   17 2
    38   16   18 am
    39   18   21 1
    40   18   19 1
    41   19   20 1
    42   19   56 1
    43   19   57 1
    44   20   21 1
    45   20   58 1
    46   20   59 1
    47   21   22 1
    48   21   23 1
    49   23   24 2
    50   23   25 am
    51   25   26 1
    52   25   60 1
    53   26   27 1
    54   26   61 1
    55   26   62 1
    56   27   32 ar
    57   27   28 ar
    58   28   29 ar
    59   28   63 1
    60   29   30 ar
    61   29   64 1
    62   30   31 ar
    63   30   33 1
    64   31   32 ar
    65   31   65 1
    66   32   66 1
    67   33   34 2
    68   33   36 1
    69   34   35 1
    70   35   67 1
    71   36   68 1
    72   36   69 1
@<TRIPOS>MOLECULE
ZINC08214681
   81    83     0     0     0
SMALL
USER_CHARGES

@<TRIPOS>ATOM
      1 C1          0.4952    0.7746   -1.5232 C.3       1 <0>        -0.1562
      2 C2          0.1513   -0.6768   -1.1822 C.3       1 <0>         0.0679
      3 H1         -0.9296   -0.8163   -1.1669 H         1 <0>         0.1000
      4 C3          0.8032   -1.6376   -2.2011 C.3       1 <0>         0.0137
      5 C4          1.2268   -2.8559   -1.3504 C.3       1 <0>         0.0974
      6 H2          0.7142   -3.7558   -1.6902 H         1 <0>         0.1063
      7 C5          0.7807   -2.4870    0.0818 C.3       1 <0>         0.2359
      8 H3          1.5093   -2.8436    0.8099 H         1 <0>         0.1133
      9 O1          0.7235   -1.0429    0.0923 O.3       1 <0>        -0.3368
     10 O2         -0.5084   -3.0378    0.3587 O.3       1 <0>        -0.3607
     11 C6         -0.9414   -2.8538    1.7081 C.3       1 <0>         0.0952
     12 H4         -0.1272   -2.4309    2.2965 H         1 <0>         0.1020
     13 C7         -1.3513   -4.2036    2.3007 C.3       1 <0>         0.1439
     14 H5         -2.1655   -4.6265    1.7122 H         1 <0>         0.1220
     15 C8         -1.8149   -4.0066    3.7454 C.3       1 <0>         0.0844
     16 H6         -1.0007   -3.5837    4.3338 H         1 <0>         0.1018
     17 C9         -3.0116   -3.0537    3.7715 C.3       1 <0>         0.1122
     18 H7         -3.8258   -3.4766    3.1831 H         1 <0>         0.1200
     19 C10        -2.6017   -1.7039    3.1790 C.3       1 <0>         0.0508
     20 H8         -1.7875   -1.2810    3.7674 H         1 <0>         0.0938
     21 C11        -2.1381   -1.9009    1.7343 C.3       1 <0>         0.0714
     22 H9         -2.9523   -2.3238    1.1458 H         1 <0>         0.0853
     23 O3         -1.7553   -0.6402    1.1808 O.3       1 <0>        -0.5216
     24 O4         -3.7194   -0.8139    3.2034 O.3       1 <0>        -0.5641
     25 N1         -3.4555   -2.8651    5.1549 N.pl3     1 <0>        -0.7007
     26 C12        -4.7495   -2.5060    5.4150 C.cat     1 <0>         0.7584
     27 N2         -5.1531   -2.3346    6.6727 N.pl3     1 <0>        -0.7886
     28 N3         -5.6060   -2.3279    4.4106 N.pl3     1 <0>        -0.7731
     29 O5         -2.1977   -5.2673    4.2988 O.3       1 <0>        -0.5494
     30 N4         -0.2054   -5.1161    2.2756 N.pl3     1 <0>        -0.6871
     31 C13        -0.4073   -6.4647    2.1683 C.cat     1 <0>         0.7652
     32 N5          0.6345   -7.2943    2.1455 N.pl3     1 <0>        -0.7875
     33 N6         -1.6457   -6.9483    2.0866 N.pl3     1 <0>        -0.7796
     34 O6          2.6432   -3.0369   -1.4056 O.3       1 <0>        -0.3527
     35 C14         3.0877   -3.8056   -2.5253 C.3       1 <0>         0.2182
     36 H10         2.7375   -3.3411   -3.4471 H         1 <0>         0.1211
     37 C15         4.6176   -3.8617   -2.5311 C.3       1 <0>         0.0862
     38 H11         4.9585   -4.4135   -3.4071 H         1 <0>         0.1112
     39 C16         5.0996   -4.5691   -1.2608 C.3       1 <0>         0.1335
     40 H12         4.8014   -3.9912   -0.3861 H         1 <0>         0.0685
     41 C17         4.4671   -5.9626   -1.1944 C.3       1 <0>         0.0413
     42 H13         4.8050   -6.5569   -2.0433 H         1 <0>         0.0811
     43 C18         2.9430   -5.8254   -1.2402 C.3       1 <0>         0.0679
     44 H14         2.6021   -5.2655   -0.3694 H         1 <0>         0.0704
     45 O7          2.5639   -5.1318   -2.4310 O.3       1 <0>        -0.3702
     46 C19         2.3051   -7.2160   -1.2345 C.3       1 <0>         0.0760
     47 O8          0.8825   -7.0874   -1.1935 O.3       1 <0>        -0.5646
     48 O9          4.8535   -6.6049    0.0222 O.3       1 <0>        -0.5532
     49 O10         6.5232   -4.6894   -1.2916 O.3       1 <0>        -0.5371
     50 N7          5.1587   -2.4965   -2.5696 N.3       1 <0>        -0.6635
     51 C20         5.2350   -1.9993   -3.9498 C.3       1 <0>         0.0269
     52 C21        -0.1951   -2.0491   -3.2523 C.2       1 <0>         0.3248
     53 O11        -1.3181   -1.6057   -3.2250 O.2       1 <0>        -0.4228
     54 O12         1.9454   -1.0272   -2.8051 O.3       1 <0>        -0.5158
     55 H15         1.5779    0.9012   -1.5224 H         1 <0>         0.0779
     56 H16         0.1015    1.0191   -2.5097 H         1 <0>         0.0724
     57 H17         0.0514    1.4373   -0.7803 H         1 <0>         0.0751
     58 H18        -2.4665    0.0148    1.1655 H         1 <0>         0.3869
     59 H19        -3.5318    0.0632    2.8419 H         1 <0>         0.4076
     60 H20        -2.8318   -2.9948    5.8863 H         1 <0>         0.4347
     61 H21        -4.5294   -2.4643    7.4042 H         1 <0>         0.4418
     62 H22        -5.3120   -2.4527    3.4946 H         1 <0>         0.4393
     63 H23        -6.5236   -2.0733    4.5950 H         1 <0>         0.4426
     64 H24        -2.5033   -5.2181    5.2150 H         1 <0>         0.4008
     65 H25         0.6964   -4.7639    2.3351 H         1 <0>         0.4358
     66 H26         1.5363   -6.9421    2.2050 H         1 <0>         0.4405
     67 H27        -2.4044   -6.3441    2.1032 H         1 <0>         0.4358
     68 H28        -1.7888   -7.9046    2.0105 H         1 <0>         0.4412
     69 H29         2.5955   -7.7527   -2.1377 H         1 <0>         0.0675
     70 H30         2.6453   -7.7682   -0.3585 H         1 <0>         0.0592
     71 H31         0.4112   -7.9317   -1.1877 H         1 <0>         0.3804
     72 H32         4.4881   -7.4936    0.1311 H         1 <0>         0.3787
     73 H33         6.8976   -5.1291   -0.5160 H         1 <0>         0.3846
     74 H34         4.2375   -1.9924   -4.3892 H         1 <0>         0.0250
     75 H35         5.6389   -0.9868   -3.9494 H         1 <0>         0.0758
     76 H36         5.8853   -2.6496   -4.5349 H         1 <0>         0.0679
     77 H37         0.0937   -2.7405   -4.0301 H         1 <0>         0.1107
     78 H38         1.7445   -0.2223   -3.3021 H         1 <0>         0.3904
     79 H39        -6.0708   -2.0800    6.8571 H         1 <0>         0.4457
     80 H40         0.4913   -8.2507    2.0694 H         1 <0>         0.4429
     81 H41         4.6137   -1.8750   -1.9910 H         1 <0>         0.3564
@<TRIPOS>BOND
     1    1    2 1
     2    1   55 1
     3    1   56 1
     4    1   57 1
     5    2    3 1
     6    2    9 1
     7    2    4 1
     8    4    5 1
     9    4   52 1
    10    4   54 1
    11    5    6 1
    12    5    7 1
    13    5   34 1
    14    7    8 1
    15    7    9 1
    16    7   10 1
    17   10   11 1
    18   11   12 1
    19   11   21 1
    20   11   13 1
    21   13   14 1
    22   13   15 1
    23   13   30 1
    24   15   16 1
    25   15   17 1
    26   15   29 1
    27   17   18 1
    28   17   19 1
    29   17   25 1
    30   19   20 1
    31   19   21 1
    32   19   24 1
    33   21   22 1
    34   21   23 1
    35   23   58 1
    36   24   59 1
    37   25   26 1
    38   25   60 1
    39   26   27 2
    40   26   28 1
    41   27   61 1
    42   27   79 1
    43   28   62 1
    44   28   63 1
    45   29   64 1
    46   30   31 1
    47   30   65 1
    48   31   32 2
    49   31   33 1
    50   32   66 1
    51   32   80 1
    52   33   67 1
    53   33   68 1
    54   34   35 1
    55   35   36 1
    56   35   45 1
    57   35   37 1
    58   37   38 1
    59   37   39 1
    60   37   50 1
    61   39   40 1
    62   39   41 1
    63   39   49 1
    64   41   42 1
    65   41   43 1
    66   41   48 1
    67   43   44 1
    68   43   45 1
    69   43   46 1
    70   46   47 1
    71   46   69 1
    72   46   70 1
    73   47   71 1
    74   48   72 1
    75   49   73 1
    76   50   51 1
    77   50   81 1
    78   51   74 1
    79   51   75 1
    80   51   76 1
    81   52   53 2
    82   52   77 1
    83   54   78 1
@<TRIPOS>MOLECULE
ZINC13540266
   40    42     0     0     0
SMALL
USER_CHARGES

@<TRIPOS>ATOM
      1 C1          6.3497    0.2430    1.3683 C.ar      1 <0>        -0.0551
      2 C2          7.6247    0.2263    0.8178 C.ar      1 <0>        -0.2963
      3 C3          8.0758   -0.9180    0.1916 C.ar      1 <0>         0.1426
      4 N1          7.3121   -1.9913    0.1108 N.ar      1 <0>        -0.6027
      5 C4          6.0914   -2.0149    0.6229 C.ar      1 <0>         0.4427
      6 C5          5.5726   -0.8966    1.2681 C.ar      1 <0>        -0.2104
      7 N2          5.3213   -3.1670    0.5150 N.2       1 <0>        -1.0444
      8 S1          5.9316   -4.5021   -0.2514 S.o2      1 <0>         2.6241
      9 O1          6.0892   -4.1489   -1.6188 O.2       1 <0>        -1.0257
     10 O2          7.0125   -4.9686    0.5444 O.2       1 <0>        -1.0238
     11 C6          4.6886   -5.7496   -0.1937 C.ar      1 <0>        -0.5919
     12 C7          4.6444   -6.6286    0.8743 C.ar      1 <0>        -0.0083
     13 C8          3.6744   -7.6076    0.9263 C.ar      1 <0>        -0.1413
     14 C9          2.7347   -7.7106   -0.1029 C.ar      1 <0>         0.0292
     15 C10         2.7856   -6.8195   -1.1781 C.ar      1 <0>        -0.0931
     16 C11         3.7579   -5.8420   -1.2137 C.ar      1 <0>        -0.0211
     17 N3          1.7705   -8.6789   -0.0583 N.2       1 <0>        -0.1754
     18 N4          1.5161   -9.2852    1.0515 N.2       1 <0>        -0.1396
     19 C12         1.6588   -8.6251    2.2385 C.ar      1 <0>        -0.0594
     20 C13         1.7436   -9.3475    3.4363 C.ar      1 <0>        -0.0523
     21 C14         1.8874   -8.6877    4.6355 C.ar      1 <0>        -0.1791
     22 C15         1.9502   -7.3001    4.6685 C.ar      1 <0>         0.1746
     23 C16         1.8663   -6.5645    3.4746 C.ar      1 <0>        -0.1588
     24 C17         1.7258   -7.2332    2.2582 C.ar      1 <0>        -0.0505
     25 C18         1.9320   -5.0942    3.5063 C.2       1 <0>         0.5155
     26 O3          1.9531   -4.4602    2.4603 O.co2     1 <0>        -0.6584
     27 O4          1.9656   -4.5065    4.5787 O.co2     1 <0>        -0.6739
     28 O5          2.0918   -6.6563    5.8523 O.3       1 <0>        -0.4713
     29 H1          5.9753    1.1245    1.8673 H         1 <0>         0.1098
     30 H2          8.2566    1.1000    0.8788 H         1 <0>         0.1044
     31 H3          9.0665   -0.9352   -0.2381 H         1 <0>         0.1262
     32 H4          4.5765   -0.9183    1.6850 H         1 <0>         0.1245
     33 H5          5.3715   -6.5480    1.6688 H         1 <0>         0.1364
     34 H6          3.6413   -8.2931    1.7602 H         1 <0>         0.1300
     35 H7          2.0628   -6.8934   -1.9772 H         1 <0>         0.1367
     36 H8          3.7956   -5.1496   -2.0416 H         1 <0>         0.1428
     37 H9          1.6955  -10.4262    3.4184 H         1 <0>         0.1313
     38 H10         1.9513   -9.2509    5.5548 H         1 <0>         0.1300
     39 H11         1.6648   -6.6743    1.3361 H         1 <0>         0.1421
     40 H12         3.0115   -6.5072    6.1113 H         1 <0>         0.3897
@<TRIPOS>BOND
     1    1    6 ar
     2    1    2 ar
     3    1   29 1
     4    2    3 ar
     5    2   30 1
     6    3    4 ar
     7    3   31 1
     8    4    5 ar
     9    5    6 ar
    10    5    7 1
    11    6   32 1
    12    7    8 1
    13    8    9 2
    14    8   10 2
    15    8   11 1
    16   11   16 ar
    17   11   12 ar
    18   12   13 ar
    19   12   33 1
    20   13   14 ar
    21   13   34 1
    22   14   15 ar
    23   14   17 1
    24   15   16 ar
    25   15   35 1
    26   16   36 1
    27   17   18 2
    28   18   19 1
    29   19   24 ar
    30   19   20 ar
    31   20   21 ar
    32   20   37 1
    33   21   22 ar
    34   21   38 1
    35   22   23 ar
    36   22   28 1
    37   23   24 ar
    38   23   25 1
    39   24   39 1
    40   25   26 2
    41   25   27 1
    42   28   40 1
@<TRIPOS>MOLECULE
ZINC00388081
   19    19     0     0     0
SMALL
USER_CHARGES
2-(3H-imidazol-4-yl)ethanamine
@<TRIPOS>ATOM
      1 C1         -0.1629   -0.1148    3.0873 C.2       1 <0>         0.0328
      2 C2          0.0000    1.0800    2.4877 C.2       1 <0>         0.0262
      3 N1          0.9506    1.7562    3.2038 N.pl3     1 <0>        -0.5169
      4 H1          1.2930    2.6765    3.0145 H         1 <0>         0.4762
      5 C3          1.3396    0.9484    4.2137 C.cat     1 <0>         0.3335
      6 C4         -0.7288    1.5792    1.2668 C.3       1 <0>        -0.0858
      7 C5         -0.0127    1.0858    0.0080 C.3       1 <0>        -0.0029
      8 H2         -0.8443   -0.8930    2.7768 H         1 <0>         0.2272
      9 H3          2.0809    1.1881    4.9616 H         1 <0>         0.2723
     10 H4         -0.7436    2.6691    1.2728 H         1 <0>         0.1192
     11 H5         -1.7514    1.2020    1.2746 H         1 <0>         0.1344
     12 H6          0.0021   -0.0041    0.0020 H         1 <0>         0.1450
     13 H7          1.0099    1.4631    0.0003 H         1 <0>         0.1357
     14 H8         -0.2694    1.2597   -2.0273 H         1 <0>         0.4519
     15 H9         -1.6917    1.2898   -1.1659 H         1 <0>         0.4440
     16 N2         -0.7207    1.5974   -1.1788 N.4       1 <0>        -0.6472
     17 H10        -0.6943    2.6238   -1.1711 H         1 <0>         0.4448
     18 N3          0.6717   -0.1691    4.1349 N.pl3     1 <0>        -0.4826
     19 H11         0.7697   -0.9657    4.7752 H         1 <0>         0.4922
@<TRIPOS>BOND
     1    1    2 2
     2    1    8 1
     3    1   18 1
     4    2    3 1
     5    2    6 1
     6    3    4 1
     7    3    5 1
     8    5    9 1
     9    5   18 2
    10    6    7 1
    11    6   10 1
    12    6   11 1
    13    7   12 1
    14    7   13 1
    15    7   16 1
    16   14   16 1
    17   15   16 1
    18   16   17 1
    19   18   19 1
@<TRIPOS>MOLECULE
ZINC07997568
   22    23     0     0     0
SMALL
USER_CHARGES

@<TRIPOS>ATOM
      1 C1         -0.0217    1.4607    0.2340 C.2       1 <0>        -0.1743
      2 C2          1.2801    1.8604    0.1709 C.2       1 <0>        -0.0678
      3 C3          2.0664    0.7220   -0.0221 C.2       1 <0>         0.0320
      4 O1          1.2935   -0.3658   -0.0801 O.3       1 <0>        -0.0971
      5 C4         -0.0029   -0.0061    0.0677 C.2       1 <0>         0.0721
      6 C5         -1.0961   -0.8481    0.0645 C.2       1 <0>         0.0888
      7 N1         -0.9257   -2.1663   -0.1012 N.2       1 <0>        -0.1535
      8 N2          0.2634   -2.6661   -0.1162 N.am      1 <0>        -0.5061
      9 C6          0.9557   -3.2793   -1.2643 C.3       1 <0>         0.0561
     10 C7          2.3005   -3.6773   -0.6897 C.2       1 <0>         0.4639
     11 O2          3.3085   -4.2803   -1.3393 O.3       1 <0>        -0.6229
     12 N3          2.2813   -3.3142    0.5656 N.2       1 <0>        -0.6459
     13 C8          1.1307   -2.7300    0.9125 C.2       1 <0>         0.6529
     14 O3          0.8931   -2.3080    2.0278 O.2       1 <0>        -0.5767
     15 N4          3.5462    0.7214   -0.1448 N.pl3     1 <0>         0.0200
     16 O4          4.2134    1.8547   -0.0729 O.2       1 <0>        -0.1850
     17 O5          4.1915   -0.4123   -0.3256 O.3       1 <0>        -0.1283
     18 H1         -0.8886    2.0880    0.3803 H         1 <0>         0.1874
     19 H2          1.6392    2.8755    0.2546 H         1 <0>         0.1836
     20 H3         -2.0892   -0.4443    0.1957 H         1 <0>         0.2078
     21 H4          0.4133   -4.1568   -1.6163 H         1 <0>         0.1028
     22 H5          1.0808   -2.5551   -2.0693 H         1 <0>         0.0902
@<TRIPOS>BOND
     1    1    5 2
     2    1    2 1
     3    1   18 1
     4    2    3 2
     5    2   19 1
     6    3    4 1
     7    3   15 1
     8    4    5 1
     9    5    6 1
    10    6    7 2
    11    6   20 1
    12    7    8 1
    13    8   13 am
    14    8    9 1
    15    9   10 1
    16    9   21 1
    17    9   22 1
    18   10   11 1
    19   10   12 2
    20   12   13 1
    21   13   14 2
    22   15   16 2
    23   15   17 1
@<TRIPOS>MOLECULE
ZINC03860468
   25    25     0     0     0
SMALL
USER_CHARGES

@<TRIPOS>ATOM
      1 C1         -0.0187    1.5258    0.0104 C.3       1 <0>         0.0815
      2 C2          0.0021   -0.0041    0.0020 C.3       1 <0>         0.0730
      3 H1          0.5883   -0.3550   -0.8473 H         1 <0>         0.0821
      4 C3         -1.4298   -0.5335   -0.1124 C.3       1 <0>         0.0869
      5 H2         -2.0272   -0.1498    0.7147 H         1 <0>         0.0773
      6 C4         -1.4057   -2.0641   -0.0595 C.3       1 <0>         0.1202
      7 H3         -0.8501   -2.4498   -0.9143 H         1 <0>         0.0785
      8 C5         -0.7236   -2.5086    1.2379 C.3       1 <0>         0.0402
      9 H4         -1.3066   -2.1648    2.0923 H         1 <0>         0.0640
     10 C6          0.6811   -1.9029    1.3002 C.3       1 <0>         0.2762
     11 H5          1.2762   -2.2788    0.4679 H         1 <0>         0.0673
     12 O1          0.5890   -0.4794    1.2152 O.3       1 <0>        -0.3907
     13 O2          1.3031   -2.2676    2.5339 O.3       1 <0>        -0.5408
     14 N1         -0.6292   -3.9743    1.2658 N.3       1 <0>        -0.8360
     15 O3         -2.7437   -2.5648   -0.0939 O.3       1 <0>        -0.5475
     16 O4         -1.9994   -0.1061   -1.3513 O.3       1 <0>        -0.5436
     17 O5          1.3220    2.0204    0.0003 O.3       1 <0>        -0.5618
     18 H6         -0.5459    1.8868   -0.8726 H         1 <0>         0.0668
     19 H7         -0.5289    1.8773    0.9072 H         1 <0>         0.0609
     20 H8          2.1980   -1.9175    2.6418 H         1 <0>         0.3936
     21 H9         -0.1823   -4.2918    2.1128 H         1 <0>         0.3609
     22 H10        -2.8037   -3.5294   -0.0635 H         1 <0>         0.3809
     23 H11        -2.0418    0.8545   -1.4541 H         1 <0>         0.3805
     24 H12         1.3852    2.9853    0.0049 H         1 <0>         0.3858
     25 H13        -1.5386   -4.3973    1.1563 H         1 <0>         0.3439
@<TRIPOS>BOND
     1    1    2 1
     2    1   17 1
     3    1   18 1
     4    1   19 1
     5    2    3 1
     6    2   12 1
     7    2    4 1
     8    4    5 1
     9    4    6 1
    10    4   16 1
    11    6    7 1
    12    6    8 1
    13    6   15 1
    14    8    9 1
    15    8   10 1
    16    8   14 1
    17   10   11 1
    18   10   12 1
    19   10   13 1
    20   13   20 1
    21   14   21 1
    22   14   25 1
    23   15   22 1
    24   16   23 1
    25   17   24 1
@<TRIPOS>MOLECULE
ZINC12503190
   53    55     0     0     0
SMALL
USER_CHARGES
4-[[2-butyl-5-[(Z)-3-hydroxy-3-oxo-2-(2-thienylmethyl)prop-1-enyl]imidazol-1-yl]methyl]benzoic acid
@<TRIPOS>ATOM
      1 C1          2.1974   -4.1718   -3.1665 C.3       1 <0>        -0.1545
      2 C2          2.0602   -3.7149   -1.7128 C.3       1 <0>        -0.1230
      3 C3          1.9103   -2.1929   -1.6685 C.3       1 <0>        -0.1200
      4 C4          1.7731   -1.7360   -0.2148 C.3       1 <0>        -0.0704
      5 C5          1.5045   -0.2536   -0.1773 C.cat     1 <0>         0.2918
      6 C6          0.4456    1.6297   -0.2199 C.2       1 <0>        -0.0300
      7 C7          1.7838    1.9188   -0.0379 C.2       1 <0>         0.1694
      8 N1          2.4388    0.7021   -0.0140 N.pl3     1 <0>        -0.3460
      9 C8          3.8786    0.4918    0.1560 C.3       1 <0>         0.1521
     10 C9          4.1951    0.3444    1.6220 C.ar      1 <0>        -0.1455
     11 C10         4.4730    1.4663    2.3827 C.ar      1 <0>        -0.1065
     12 C11         4.7587    1.3391    3.7262 C.ar      1 <0>        -0.0730
     13 C12         4.7775    0.0735    4.3159 C.ar      1 <0>        -0.0920
     14 C13         4.5014   -1.0548    3.5412 C.ar      1 <0>        -0.0899
     15 C14         4.2120   -0.9127    2.1999 C.ar      1 <0>        -0.1189
     16 C15         5.0878   -0.0709    5.7529 C.2       1 <0>         0.4858
     17 O1          5.1030   -1.1732    6.2632 O.co2     1 <0>        -0.6285
     18 C16         2.3674    3.2032    0.0964 C.2       1 <0>        -0.1432
     19 C17         3.3410    3.5990   -0.7614 C.2       1 <0>        -0.0594
     20 C18         4.0323    4.9225   -0.5578 C.3       1 <0>         0.0050
     21 C19         5.3046    4.7101    0.2213 C.2       1 <0>        -0.1352
     22 C20         6.5526    4.4468   -0.2374 C.2       1 <0>        -0.1362
     23 C21         7.5821    4.2913    0.6719 C.2       1 <0>        -0.1571
     24 C22         7.3111    4.3961    1.9958 C.2       1 <0>        -0.1683
     25 S1          5.5577    4.7321    1.9884 S.3       1 <0>         0.0183
     26 C23         3.7069    2.7702   -1.8460 C.2       1 <0>         0.4674
     27 O2          3.0728    1.7579   -2.0792 O.co2     1 <0>        -0.6342
     28 H1          1.3088   -3.8778   -3.7251 H         1 <0>         0.0539
     29 H2          3.0769   -3.7069   -3.6120 H         1 <0>         0.0582
     30 H3          2.3042   -5.2560   -3.1981 H         1 <0>         0.0569
     31 H4          2.9488   -4.0088   -1.1541 H         1 <0>         0.0690
     32 H5          1.1807   -4.1797   -1.2673 H         1 <0>         0.0652
     33 H6          1.0217   -1.8989   -2.2271 H         1 <0>         0.0699
     34 H7          2.7898   -1.7280   -2.1140 H         1 <0>         0.0816
     35 H8          2.6967   -1.9516    0.3225 H         1 <0>         0.1114
     36 H9          0.9462   -2.2671    0.2565 H         1 <0>         0.1096
     37 H10        -0.3584    2.3474   -0.2904 H         1 <0>         0.2116
     38 H11         4.1787   -0.4126   -0.3732 H         1 <0>         0.1104
     39 H12         4.4209    1.3464   -0.2486 H         1 <0>         0.1248
     40 H13         4.4621    2.4442    1.9245 H         1 <0>         0.1262
     41 H14         4.9711    2.2160    4.3199 H         1 <0>         0.1350
     42 H15         4.5139   -2.0365    3.9911 H         1 <0>         0.1312
     43 H16         3.9978   -1.7845    1.5996 H         1 <0>         0.1156
     44 H17         2.0370    3.8670    0.8817 H         1 <0>         0.1483
     45 H18         4.2688    5.3618   -1.5270 H         1 <0>         0.1077
     46 H19         3.3756    5.5942   -0.0050 H         1 <0>         0.0814
     47 H20         6.7404    4.3626   -1.2976 H         1 <0>         0.1429
     48 H21         8.5864    4.0848    0.3327 H         1 <0>         0.1303
     49 H22         7.9818    4.3007    2.8370 H         1 <0>         0.1840
     50 O3          5.3538    1.0197    6.4975 O.co2     1 <0>        -0.7470
     51 O4          4.7598    3.1012   -2.6232 O.co2     1 <0>        -0.7186
     52 N2          0.3255    0.3033   -0.2987 N.pl3     1 <0>        -0.4804
     53 H23        -0.5570   -0.2037   -0.4339 H         1 <0>         0.4627
@<TRIPOS>BOND
     1    1    2 1
     2    1   28 1
     3    1   29 1
     4    1   30 1
     5    2    3 1
     6    2   31 1
     7    2   32 1
     8    3    4 1
     9    3   33 1
    10    3   34 1
    11    4    5 1
    12    4   35 1
    13    4   36 1
    14    5    8 1
    15    5   52 2
    16    6    7 2
    17    6   37 1
    18    6   52 1
    19    7    8 1
    20    7   18 1
    21    8    9 1
    22    9   10 1
    23    9   38 1
    24    9   39 1
    25   10   15 ar
    26   10   11 ar
    27   11   12 ar
    28   11   40 1
    29   12   13 ar
    30   12   41 1
    31   13   14 ar
    32   13   16 1
    33   14   15 ar
    34   14   42 1
    35   15   43 1
    36   16   17 2
    37   16   50 1
    38   18   19 2
    39   18   44 1
    40   19   20 1
    41   19   26 1
    42   20   21 1
    43   20   45 1
    44   20   46 1
    45   21   25 1
    46   21   22 2
    47   22   23 1
    48   22   47 1
    49   23   24 2
    50   23   48 1
    51   24   25 1
    52   24   49 1
    53   26   27 2
    54   26   51 1
    55   52   53 1
@<TRIPOS>MOLECULE
ZINC06827693
    5     4     0     0     0
SMALL
USER_CHARGES

@<TRIPOS>ATOM
      1 C1         -0.0145    1.2179    0.0087 C.2       1 <0>         0.6012
      2 O1          0.0021   -0.0041    0.0020 O.co2     1 <0>        -0.7183
      3 O2          1.1391    1.9051    0.0014 O.3       1 <0>        -0.5829
      4 O3         -1.0811    1.8145    0.0170 O.co2     1 <0>        -0.6738
      5 H1          1.9291    1.3474   -0.0091 H         1 <0>         0.3737
@<TRIPOS>BOND
     1    1    2 2
     2    1    3 1
     3    1    4 1
     4    3    5 1
@<TRIPOS>MOLECULE
ZINC17747847
   34    34     0     0     0
SMALL
USER_CHARGES

@<TRIPOS>ATOM
      1 C1          1.7915   -3.0453   -1.8918 C.3       1 <0>        -0.1495
      2 C2          0.9174   -2.3362   -0.8555 C.3       1 <0>        -0.1243
      3 C3         -0.5385   -2.7726   -1.0319 C.3       1 <0>        -0.1283
      4 C4         -1.4126   -2.0635    0.0045 C.3       1 <0>        -0.0652
      5 H1         -1.0195   -2.2545    1.0030 H         1 <0>         0.0948
      6 C5         -1.4056   -0.5578   -0.2670 C.3       1 <0>        -0.1550
      7 C6         -2.8453   -2.5920   -0.0894 C.3       1 <0>        -0.1292
      8 C7         -3.6471   -1.9866    1.0465 C.2       1 <0>         0.4912
      9 O1         -3.2800   -2.1660    2.3266 O.3       1 <0>        -0.5861
     10 N1         -4.7067   -1.2841    0.7408 N.2       1 <0>        -0.6081
     11 C8         -5.1010   -1.0846   -0.5207 C.2       1 <0>         0.5598
     12 N2         -4.4756   -1.5669   -1.6019 N.am      1 <0>        -0.6568
     13 C9         -3.3584   -2.3196   -1.4915 C.2       1 <0>         0.5422
     14 O2         -2.7907   -2.7571   -2.4694 O.2       1 <0>        -0.4950
     15 S1         -6.5085   -0.1431   -0.7724 S.2       1 <0>        -0.6722
     16 C10        -2.8042   -4.1082    0.1119 C.3       1 <0>        -0.0702
     17 C11        -4.2021   -4.6644    0.0256 C.2       1 <0>        -0.1604
     18 C12        -4.4739   -5.6240   -0.8237 C.2       1 <0>        -0.1881
     19 H2          2.8286   -2.7345   -1.7662 H         1 <0>         0.0494
     20 H3          1.7162   -4.1239   -1.7537 H         1 <0>         0.0519
     21 H4          1.4523   -2.7828   -2.8939 H         1 <0>         0.0527
     22 H5          1.2565   -2.5988    0.1466 H         1 <0>         0.0591
     23 H6          0.9926   -1.2576   -0.9936 H         1 <0>         0.0609
     24 H7         -0.8776   -2.5101   -2.0340 H         1 <0>         0.0859
     25 H8         -0.6137   -3.8512   -0.8938 H         1 <0>         0.0664
     26 H9         -2.1080   -0.0642    0.4047 H         1 <0>         0.0588
     27 H10        -0.4036   -0.1629   -0.0990 H         1 <0>         0.0658
     28 H11        -1.7003   -0.3735   -1.3001 H         1 <0>         0.0493
     29 H12        -4.8319   -1.3723   -2.4829 H         1 <0>         0.4155
     30 H13        -2.1846   -4.5608   -0.6622 H         1 <0>         0.0850
     31 H14        -2.3835   -4.3333    1.0919 H         1 <0>         0.0959
     32 H15        -4.9799   -4.2719    0.6640 H         1 <0>         0.1098
     33 H16        -5.4758   -6.0227   -0.8856 H         1 <0>         0.0972
     34 H17        -3.6962   -6.0165   -1.4621 H         1 <0>         0.0965
@<TRIPOS>BOND
     1    1    2 1
     2    1   19 1
     3    1   20 1
     4    1   21 1
     5    2    3 1
     6    2   22 1
     7    2   23 1
     8    3    4 1
     9    3   24 1
    10    3   25 1
    11    4    5 1
    12    4    6 1
    13    4    7 1
    14    6   26 1
    15    6   27 1
    16    6   28 1
    17    7    8 1
    18    7   16 1
    19    7   13 1
    20    8    9 1
    21    8   10 2
    22   10   11 1
    23   11   12 1
    24   11   15 2
    25   12   13 am
    26   12   29 1
    27   13   14 2
    28   16   17 1
    29   16   30 1
    30   16   31 1
    31   17   18 2
    32   17   32 1
    33   18   33 1
    34   18   34 1
@<TRIPOS>MOLECULE
ZINC00897236
   27    28     0     0     0
SMALL
USER_CHARGES

@<TRIPOS>ATOM
      1 C1         -0.0166    1.3759    0.0096 C.ar      1 <0>        -0.2165
      2 C2          1.1783    2.0936    0.0021 C.ar      1 <0>         0.3657
      3 C3          2.3808    1.4000   -0.0226 C.ar      1 <0>        -0.7331
      4 C4          2.3964    0.0207   -0.0201 C.ar      1 <0>         0.1186
      5 C5          1.2072   -0.6851   -0.0088 C.ar      1 <0>        -0.7489
      6 C6          0.0021   -0.0041    0.0020 C.ar      1 <0>         0.1160
      7 Cl1        -1.4913   -0.8891    0.0060 Cl        1 <0>        -0.0495
      8 S1          1.2260   -2.4470   -0.0082 S.o2      1 <0>         2.7044
      9 O1          0.3250   -2.8631   -1.0253 O.2       1 <0>        -0.9569
     10 O2          2.5919   -2.8386    0.0064 O.2       1 <0>        -0.9674
     11 N1          0.5759   -2.9431    1.4318 N.pl3     1 <0>        -1.2487
     12 S2          3.9028    2.2971   -0.0763 S.o2      1 <0>         2.5709
     13 O3          4.3733    2.2366   -1.4158 O.2       1 <0>        -1.0262
     14 O4          4.6796    1.8636    1.0318 O.2       1 <0>        -0.9934
     15 N2          3.4725    3.8817    0.2181 N.2       1 <0>        -1.0786
     16 C7          2.2211    4.3393   -0.4192 C.3       1 <0>         0.3464
     17 H1          2.3161    4.2700   -1.5028 H         1 <0>         0.0596
     18 N3          1.1259    3.4846    0.0324 N.pl3     1 <0>        -0.7380
     19 C8          1.9426    5.7898   -0.0201 C.3       1 <0>         0.0996
     20 Cl2         3.3080    6.8351   -0.5623 Cl        1 <0>        -0.1137
     21 Cl3         0.4145    6.3448   -0.7998 Cl        1 <0>        -0.1689
     22 H2         -0.9601    1.9014    0.0260 H         1 <0>         0.1419
     23 H3          3.3379   -0.5083   -0.0273 H         1 <0>         0.1509
     24 H4          0.2741   -2.2870    2.0793 H         1 <0>         0.4157
     25 H5          0.4969   -3.8898    1.6277 H         1 <0>         0.4181
     26 H6          0.3211    3.9077    0.3703 H         1 <0>         0.3938
     27 H7          1.8425    5.8558    1.0633 H         1 <0>         0.1384
@<TRIPOS>BOND
     1    1    6 ar
     2    1    2 ar
     3    1   22 1
     4    2   18 1
     5    2    3 ar
     6    3    4 ar
     7    3   12 1
     8    4    5 ar
     9    4   23 1
    10    5    6 ar
    11    5    8 1
    12    6    7 1
    13    8    9 2
    14    8   10 2
    15    8   11 1
    16   11   24 1
    17   11   25 1
    18   12   13 2
    19   12   14 2
    20   12   15 1
    21   15   16 1
    22   16   17 1
    23   16   18 1
    24   16   19 1
    25   18   26 1
    26   19   20 1
    27   19   21 1
    28   19   27 1
@<TRIPOS>MOLECULE
ZINC13298712
   33    33     0     0     0
SMALL
USER_CHARGES

@<TRIPOS>ATOM
      1 C1          1.7636   -2.5635    2.1229 C.3       1 <0>        -0.1494
      2 C2          0.8935   -2.0680    0.9661 C.3       1 <0>        -0.1249
      3 C3         -0.5424   -2.5590    1.1613 C.3       1 <0>        -0.1281
      4 C4         -1.4126   -2.0635    0.0045 C.3       1 <0>        -0.0645
      5 H1         -0.9712   -2.3760   -0.9419 H         1 <0>         0.0940
      6 C5         -1.4975   -0.5365    0.0479 C.3       1 <0>        -0.1553
      7 C6         -2.8172   -2.6563    0.1326 C.3       1 <0>        -0.1345
      8 C7         -3.6066   -2.2713   -1.1036 C.2       1 <0>         0.4920
      9 O1         -3.1822   -2.6141   -2.3316 O.3       1 <0>        -0.5867
     10 N1         -4.7134   -1.5954   -0.9368 N.2       1 <0>        -0.6081
     11 C8         -5.1658   -1.2379    0.2691 C.2       1 <0>         0.5595
     12 N2         -4.5570   -1.5196    1.4279 N.am      1 <0>        -0.6586
     13 C9         -3.3974   -2.2131    1.4632 C.2       1 <0>         0.5405
     14 O2         -2.8450   -2.4699    2.5115 O.2       1 <0>        -0.4958
     15 S1         -6.6306   -0.3544    0.3370 S.2       1 <0>        -0.6727
     16 C10        -2.6867   -4.1805    0.1587 C.3       1 <0>        -0.0994
     17 C11        -4.0757   -4.8092    0.2864 C.3       1 <0>        -0.1596
     18 H2          2.7865   -2.2137    1.9838 H         1 <0>         0.0493
     19 H3          1.3721   -2.1765    3.0637 H         1 <0>         0.0527
     20 H4          1.7521   -3.6532    2.1453 H         1 <0>         0.0520
     21 H5          0.9049   -0.9783    0.9436 H         1 <0>         0.0610
     22 H6          1.2850   -2.4549    0.0253 H         1 <0>         0.0590
     23 H7         -0.5539   -3.6487    1.1837 H         1 <0>         0.0672
     24 H8         -0.9340   -2.1721    2.1021 H         1 <0>         0.0852
     25 H9         -2.0144   -0.2270    0.9563 H         1 <0>         0.0467
     26 H10        -0.4918   -0.1163    0.0410 H         1 <0>         0.0662
     27 H11        -2.0469   -0.1782   -0.8227 H         1 <0>         0.0598
     28 H12        -4.9566   -1.2201    2.2594 H         1 <0>         0.4154
     29 H13        -2.2173   -4.5208   -0.7643 H         1 <0>         0.0866
     30 H14        -2.0735   -4.4781    1.0093 H         1 <0>         0.0798
     31 H15        -3.9827   -5.8950    0.3050 H         1 <0>         0.0629
     32 H16        -4.5451   -4.4689    1.2095 H         1 <0>         0.0469
     33 H17        -4.6889   -4.5115   -0.5642 H         1 <0>         0.0609
@<TRIPOS>BOND
     1    1    2 1
     2    1   18 1
     3    1   19 1
     4    1   20 1
     5    2    3 1
     6    2   21 1
     7    2   22 1
     8    3    4 1
     9    3   23 1
    10    3   24 1
    11    4    5 1
    12    4    6 1
    13    4    7 1
    14    6   25 1
    15    6   26 1
    16    6   27 1
    17    7    8 1
    18    7   16 1
    19    7   13 1
    20    8    9 1
    21    8   10 2
    22   10   11 1
    23   11   12 1
    24   11   15 2
    25   12   13 am
    26   12   28 1
    27   13   14 2
    28   16   17 1
    29   16   29 1
    30   16   30 1
    31   17   31 1
    32   17   32 1
    33   17   33 1
@<TRIPOS>MOLECULE
ZINC13298720
   34    34     0     0     0
SMALL
USER_CHARGES

@<TRIPOS>ATOM
      1 C1          1.7636   -2.5635    2.1229 C.3       1 <0>        -0.1495
      2 C2          0.8935   -2.0680    0.9661 C.3       1 <0>        -0.1247
      3 C3         -0.5424   -2.5590    1.1613 C.3       1 <0>        -0.1287
      4 C4         -1.4126   -2.0635    0.0045 C.3       1 <0>        -0.0651
      5 H1         -0.9712   -2.3760   -0.9419 H         1 <0>         0.0945
      6 C5         -1.4975   -0.5365    0.0479 C.3       1 <0>        -0.1552
      7 C6         -2.8172   -2.6563    0.1326 C.3       1 <0>        -0.1293
      8 C7         -3.6066   -2.2713   -1.1036 C.2       1 <0>         0.4943
      9 O1         -3.1822   -2.6141   -2.3316 O.3       1 <0>        -0.5858
     10 N1         -4.7135   -1.5954   -0.9368 N.2       1 <0>        -0.6058
     11 C8         -5.1658   -1.2379    0.2691 C.2       1 <0>         0.5592
     12 N2         -4.5570   -1.5196    1.4279 N.am      1 <0>        -0.6585
     13 C9         -3.3974   -2.2131    1.4632 C.2       1 <0>         0.5400
     14 O2         -2.8450   -2.4699    2.5115 O.2       1 <0>        -0.4955
     15 S1         -6.6306   -0.3544    0.3370 S.2       1 <0>        -0.6737
     16 C10        -2.6867   -4.1805    0.1587 C.3       1 <0>        -0.0683
     17 C11        -4.0548   -4.7997    0.2845 C.2       1 <0>        -0.1693
     18 C12        -4.4568   -5.6842   -0.5943 C.2       1 <0>        -0.1710
     19 H2          2.7865   -2.2137    1.9838 H         1 <0>         0.0494
     20 H3          1.3720   -2.1765    3.0637 H         1 <0>         0.0528
     21 H4          1.7521   -3.6532    2.1453 H         1 <0>         0.0521
     22 H5          0.9049   -0.9783    0.9436 H         1 <0>         0.0613
     23 H6          1.2850   -2.4549    0.0253 H         1 <0>         0.0592
     24 H7         -0.5539   -3.6487    1.1837 H         1 <0>         0.0669
     25 H8         -0.9340   -2.1721    2.1021 H         1 <0>         0.0859
     26 H9         -0.4918   -0.1163    0.0410 H         1 <0>         0.0668
     27 H10        -2.0469   -0.1782   -0.8227 H         1 <0>         0.0601
     28 H11        -2.0144   -0.2270    0.9563 H         1 <0>         0.0471
     29 H12        -4.9566   -1.2201    2.2594 H         1 <0>         0.4154
     30 H13        -2.2173   -4.5208   -0.7643 H         1 <0>         0.0906
     31 H14        -2.0735   -4.4781    1.0093 H         1 <0>         0.0887
     32 H15        -4.7039   -4.5143    1.0992 H         1 <0>         0.0997
     33 H16        -5.4373   -6.1280   -0.5041 H         1 <0>         0.0965
     34 H17        -3.8077   -5.9696   -1.4089 H         1 <0>         0.0999
@<TRIPOS>BOND
     1    1    2 1
     2    1   19 1
     3    1   20 1
     4    1   21 1
     5    2    3 1
     6    2   22 1
     7    2   23 1
     8    3    4 1
     9    3   24 1
    10    3   25 1
    11    4    5 1
    12    4    6 1
    13    4    7 1
    14    6   26 1
    15    6   27 1
    16    6   28 1
    17    7    8 1
    18    7   16 1
    19    7   13 1
    20    8    9 1
    21    8   10 2
    22   10   11 1
    23   11   12 1
    24   11   15 2
    25   12   13 am
    26   12   29 1
    27   13   14 2
    28   16   17 1
    29   16   30 1
    30   16   31 1
    31   17   18 2
    32   17   32 1
    33   18   33 1
    34   18   34 1
@<TRIPOS>MOLECULE
ZINC00897234
   27    28     0     0     0
SMALL
USER_CHARGES

@<TRIPOS>ATOM
      1 C1         -0.0166    1.3759    0.0096 C.ar      1 <0>        -0.2182
      2 C2          1.1783    2.0936    0.0021 C.ar      1 <0>         0.3666
      3 C3          2.3810    1.3999   -0.0038 C.ar      1 <0>        -0.7297
      4 C4          2.3964    0.0208   -0.0214 C.ar      1 <0>         0.1173
      5 C5          1.2071   -0.6851   -0.0176 C.ar      1 <0>        -0.7492
      6 C6          0.0021   -0.0041    0.0020 C.ar      1 <0>         0.1156
      7 Cl1        -1.4912   -0.8892    0.0171 Cl        1 <0>        -0.0510
      8 S1          1.2257   -2.4469   -0.0375 S.o2      1 <0>         2.7044
      9 O1          0.3240   -2.8510   -1.0587 O.2       1 <0>        -0.9572
     10 O2          2.5915   -2.8387   -0.0283 O.2       1 <0>        -0.9676
     11 N1          0.5765   -2.9596    1.3971 N.pl3     1 <0>        -1.2491
     12 S2          3.9039    2.2965    0.0305 S.o2      1 <0>         2.5613
     13 O3          4.6586    1.8762   -1.0977 O.2       1 <0>        -0.9938
     14 O4          4.4006    2.2204    1.3597 O.2       1 <0>        -1.0319
     15 N2          3.4681    3.8842   -0.2385 N.2       1 <0>        -1.0605
     16 C7          2.2292    4.3347    0.4274 C.3       1 <0>         0.3386
     17 H1          2.3449    4.2538    1.5082 H         1 <0>         0.0643
     18 N3          1.1255    3.4848   -0.0123 N.pl3     1 <0>        -0.7365
     19 C8          1.9433    5.7895    0.0494 C.3       1 <0>         0.0974
     20 Cl2         3.3189    6.8290    0.5766 Cl        1 <0>        -0.1226
     21 Cl3         1.7435    5.9179   -1.7379 Cl        1 <0>        -0.1352
     22 H2         -0.9601    1.9014    0.0260 H         1 <0>         0.1407
     23 H3          3.3378   -0.5082   -0.0387 H         1 <0>         0.1498
     24 H4          0.2752   -2.3110    2.0524 H         1 <0>         0.4155
     25 H5          0.4976   -3.9085    1.5821 H         1 <0>         0.4179
     26 H6          0.3146    3.9114   -0.3308 H         1 <0>         0.3923
     27 H7          1.0287    6.1198    0.5419 H         1 <0>         0.1210
@<TRIPOS>BOND
     1    1    6 ar
     2    1    2 ar
     3    1   22 1
     4    2   18 1
     5    2    3 ar
     6    3    4 ar
     7    3   12 1
     8    4    5 ar
     9    4   23 1
    10    5    6 ar
    11    5    8 1
    12    6    7 1
    13    8    9 2
    14    8   10 2
    15    8   11 1
    16   11   24 1
    17   11   25 1
    18   12   13 2
    19   12   14 2
    20   12   15 1
    21   15   16 1
    22   16   17 1
    23   16   18 1
    24   16   19 1
    25   18   26 1
    26   19   20 1
    27   19   21 1
    28   19   27 1
@<TRIPOS>MOLECULE
ZINC00897222
   40    42     0     0     0
SMALL
USER_CHARGES

@<TRIPOS>ATOM
      1 C1         -0.0167    1.3781    0.0096 C.ar      1 <0>        -0.1321
      2 C2          1.1709    2.0855    0.0021 C.ar      1 <0>        -0.1283
      3 C3          2.3773    1.4107   -0.0130 C.ar      1 <0>        -0.0742
      4 C4          2.3960    0.0285   -0.0201 C.ar      1 <0>        -0.0492
      5 C5          1.2084   -0.6789   -0.0117 C.ar      1 <0>        -0.1243
      6 C6          0.0021   -0.0041    0.0020 C.ar      1 <0>        -0.1298
      7 C7          3.7112   -0.7071   -0.0376 C.3       1 <0>        -0.0575
      8 C8          4.1714   -0.9633    1.3989 C.3       1 <0>         0.3503
      9 H1          3.4266   -1.5652    1.9196 H         1 <0>         0.0396
     10 N1          5.4500   -1.6697    1.3853 N.pl3     1 <0>        -0.7336
     11 C9          6.2283   -1.8652    2.5231 C.ar      1 <0>         0.3521
     12 C10         7.1598   -2.9025    2.5301 C.ar      1 <0>        -0.1788
     13 C11         7.9573   -3.1117    3.6355 C.ar      1 <0>        -0.0284
     14 C12         7.8404   -2.2938    4.7446 C.ar      1 <0>        -0.7216
     15 C13         6.9143   -1.2664    4.7479 C.ar      1 <0>         0.1096
     16 C14         6.1091   -1.0596    3.6473 C.ar      1 <0>        -0.7133
     17 S1          4.8996    0.2291    3.6714 S.o2      1 <0>         2.5502
     18 O1          3.8145   -0.2346    4.4631 O.2       1 <0>        -1.0324
     19 O2          5.5892    1.4407    3.9460 O.2       1 <0>        -0.9982
     20 N2          4.3461    0.3247    2.1004 N.2       1 <0>        -1.0691
     21 S2          8.8686   -2.5602    6.1505 S.o2      1 <0>         2.6890
     22 O3         10.1987   -2.6778    5.6645 O.2       1 <0>        -0.9522
     23 O4          8.4940   -1.5887    7.1176 O.2       1 <0>        -0.9636
     24 N3          8.4629   -4.0367    6.7811 N.pl3     1 <0>        -1.2489
     25 C15         8.9601   -4.2366    3.6351 C.3       1 <0>         0.4786
     26 F1          8.8947   -4.9192    2.4157 F         1 <0>        -0.1719
     27 F2         10.2464   -3.7147    3.8090 F         1 <0>        -0.1337
     28 F3          8.6701   -5.1202    4.6803 F         1 <0>        -0.1732
     29 H2         -0.9591    1.9053    0.0259 H         1 <0>         0.1120
     30 H3          1.1563    3.1654    0.0076 H         1 <0>         0.1151
     31 H4          3.3051    1.9634   -0.0196 H         1 <0>         0.1275
     32 H5          1.2231   -1.7588   -0.0176 H         1 <0>         0.1138
     33 H6         -0.9258   -0.5567    0.0082 H         1 <0>         0.1128
     34 H7          3.5884   -1.6586   -0.5549 H         1 <0>         0.0622
     35 H8          4.4573   -0.1052   -0.5563 H         1 <0>         0.0788
     36 H9          5.7731   -2.0207    0.5407 H         1 <0>         0.3922
     37 H10         7.2570   -3.5445    1.6670 H         1 <0>         0.1448
     38 H11         6.8213   -0.6262    5.6127 H         1 <0>         0.1502
     39 H12         7.7672   -4.5680    6.3632 H         1 <0>         0.4178
     40 H13         8.9209   -4.3702    7.5684 H         1 <0>         0.4176
@<TRIPOS>BOND
     1    1    6 ar
     2    1    2 ar
     3    1   29 1
     4    2    3 ar
     5    2   30 1
     6    3    4 ar
     7    3   31 1
     8    4    5 ar
     9    4    7 1
    10    5    6 ar
    11    5   32 1
    12    6   33 1
    13    7    8 1
    14    7   34 1
    15    7   35 1
    16    8    9 1
    17    8   20 1
    18    8   10 1
    19   10   11 1
    20   10   36 1
    21   11   16 ar
    22   11   12 ar
    23   12   13 ar
    24   12   37 1
    25   13   14 ar
    26   13   25 1
    27   14   15 ar
    28   14   21 1
    29   15   16 ar
    30   15   38 1
    31   16   17 1
    32   17   18 2
    33   17   19 2
    34   17   20 1
    35   21   22 2
    36   21   23 2
    37   21   24 1
    38   24   39 1
    39   24   40 1
    40   25   26 1
    41   25   27 1
    42   25   28 1
@<TRIPOS>MOLECULE
ZINC15831592
   20    21     0     0     0
SMALL
USER_CHARGES

@<TRIPOS>ATOM
      1 C1          0.0627    1.3887   -0.7766 C.ar      1 <0>        -0.1429
      2 C2          1.2120    2.0863   -0.5344 C.ar      1 <0>        -0.0709
      3 C3          2.3891    1.3584   -0.2790 C.ar      1 <0>        -0.0558
      4 C4          3.6082    2.0065   -0.0210 C.ar      1 <0>        -0.0407
      5 C5          4.7268    1.2691    0.2222 C.ar      1 <0>        -0.0126
      6 C6          4.6816   -0.1226    0.2189 C.ar      1 <0>        -0.1470
      7 C7          3.5149   -0.7881   -0.0278 C.ar      1 <0>         0.1991
      8 C8          2.3355   -0.0571   -0.2835 C.ar      1 <0>         0.1012
      9 N1          1.1786   -0.6784   -0.5277 N.ar      1 <0>        -0.4492
     10 C9          0.0798   -0.0041   -0.7660 C.ar      1 <0>         0.1376
     11 O1          3.4901   -2.1463   -0.0274 O.3       1 <0>        -0.4728
     12 N2          3.6769    3.4852   -0.0140 N.pl3     1 <0>         0.0318
     13 O2          4.6486    4.0474   -0.4628 O.2       1 <0>        -0.1417
     14 O3          2.7612    4.1307    0.4404 O.3       1 <0>        -0.1521
     15 H1         -0.8591    1.9165   -0.9718 H         1 <0>         0.1530
     16 H2          1.2172    3.1663   -0.5390 H         1 <0>         0.1600
     17 H3          5.6625    1.7708    0.4202 H         1 <0>         0.1596
     18 H4          5.5832   -0.6844    0.4140 H         1 <0>         0.1632
     19 H5         -0.8363   -0.5426   -0.9588 H         1 <0>         0.1734
     20 H6          3.2982   -2.5359    0.8366 H         1 <0>         0.4068
@<TRIPOS>BOND
     1    1   10 ar
     2    1    2 ar
     3    1   15 1
     4    2    3 ar
     5    2   16 1
     6    3    8 ar
     7    3    4 ar
     8    4    5 ar
     9    4   12 1
    10    5    6 ar
    11    5   17 1
    12    6    7 ar
    13    6   18 1
    14    7    8 ar
    15    7   11 1
    16    8    9 ar
    17    9   10 ar
    18   10   19 1
    19   11   20 1
    20   12   13 2
    21   12   14 1
@<TRIPOS>MOLECULE
ZINC14879972
   82    85     0     0     0
SMALL
USER_CHARGES

@<TRIPOS>ATOM
      1 C1          0.3452    5.6497   -2.6701 C.3       1 <0>        -0.1811
      2 C2         -0.2783    4.2550   -2.5875 C.3       1 <0>         0.0555
      3 C3         -0.1353    3.7158   -1.1628 C.3       1 <0>        -0.1805
      4 C4         -1.7612    4.3367   -2.9555 C.3       1 <0>        -0.1769
      5 N1          0.4094    3.3550   -3.5230 N.4       1 <0>        -0.4899
      6 C5          1.8331    3.2765   -3.1697 C.3       1 <0>        -0.0368
      7 C6          2.5387    2.3533   -4.1293 C.2       1 <0>         0.4974
      8 O1          1.9167    1.8137   -5.0199 O.2       1 <0>        -0.5099
      9 N2          3.8608    2.1272   -3.9980 N.am      1 <0>        -0.6306
     10 C7          4.4943    1.1810   -4.8146 C.ar      1 <0>         0.0849
     11 C8          3.7454    0.2100   -5.4603 C.ar      1 <0>        -0.0970
     12 C9          4.3654   -0.7254   -6.2809 C.ar      1 <0>         0.1728
     13 C10         5.7397   -0.6972   -6.4550 C.ar      1 <0>        -0.0274
     14 C11         6.5022    0.2674   -5.7937 C.ar      1 <0>        -0.1575
     15 C12         5.8768    1.2193   -4.9825 C.ar      1 <0>         0.1417
     16 O2          6.6142    2.1732   -4.3568 O.3       1 <0>        -0.4731
     17 C13         7.9717    0.2608   -5.9390 C.2       1 <0>         0.4255
     18 C14         8.6014   -0.8792   -6.5216 C.2       1 <0>        -0.2073
     19 C15         7.7799   -2.0887   -6.8281 C.3       1 <0>        -0.0229
     20 H1          7.6153   -2.6136   -5.8871 H         1 <0>         0.0849
     21 C16         6.4048   -1.6922   -7.3665 C.3       1 <0>        -0.0773
     22 C17         8.4210   -3.0741   -7.7835 C.3       1 <0>        -0.1004
     23 C18         9.6800   -2.5438   -8.4496 C.3       1 <0>        -0.0463
     24 H2         10.1717   -3.3515   -8.9918 H         1 <0>         0.0980
     25 C19         9.3367   -1.4129   -9.4208 C.3       1 <0>         0.0469
     26 H3          8.8479   -0.6030   -8.8792 H         1 <0>         0.1125
     27 C20        10.6077   -0.9029  -10.0513 C.2       1 <0>         0.3884
     28 O3         10.5781   -0.4241  -11.1669 O.2       1 <0>        -0.4669
     29 C21        11.8314   -0.9780   -9.3527 C.2       1 <0>        -0.4509
     30 C22        13.0072   -0.5181   -9.9652 C.2       1 <0>         0.5450
     31 N3         14.2027   -0.7154   -9.3667 N.pl3     1 <0>        -0.8262
     32 O4         12.9444    0.1188  -11.1475 O.3       1 <0>        -0.4191
     33 C23        11.8893   -1.5096   -8.0467 C.2       1 <0>         0.4053
     34 O5         12.9533   -1.5735   -7.4646 O.2       1 <0>        -0.4979
     35 C24        10.6303   -1.9977   -7.3721 C.3       1 <0>         0.1121
     36 C25         9.9303   -0.8175   -6.7331 C.2       1 <0>         0.1378
     37 O6         10.6237    0.2894   -6.4000 O.3       1 <0>        -0.4515
     38 O7         10.9315   -3.0029   -6.4021 O.3       1 <0>        -0.5125
     39 N4          8.4366   -1.9188  -10.4657 N.3       1 <0>        -0.5117
     40 C26         7.8299   -0.8129  -11.2187 C.3       1 <0>         0.0100
     41 C27         9.1402   -2.8439  -11.3641 C.3       1 <0>         0.0039
     42 O8          8.6349    1.2126   -5.5681 O.2       1 <0>        -0.4128
     43 N5          3.5994   -1.6986   -6.9324 N.pl3     1 <0>        -0.6813
     44 C28         3.0562   -1.4313   -8.2665 C.3       1 <0>         0.1148
     45 C29         3.3406   -2.9848   -6.2804 C.3       1 <0>         0.1142
     46 H4          1.4016    5.5915   -2.4079 H         1 <0>         0.0817
     47 H5          0.2433    6.0338   -3.6850 H         1 <0>         0.0850
     48 H6         -0.1651    6.3175   -1.9760 H         1 <0>         0.1096
     49 H7         -0.6457    4.3836   -0.4687 H         1 <0>         0.1096
     50 H8         -0.5796    2.7222   -1.1040 H         1 <0>         0.0847
     51 H9          0.9211    3.6576   -0.9007 H         1 <0>         0.0814
     52 H10        -1.8631    4.7207   -3.9705 H         1 <0>         0.0844
     53 H11        -2.2054    3.3430   -2.8967 H         1 <0>         0.0843
     54 H12        -2.2715    5.0044   -2.2614 H         1 <0>         0.1094
     55 H13        -0.0018    2.4352   -3.4686 H         1 <0>         0.4339
     56 H14         2.2774    4.2702   -3.2285 H         1 <0>         0.1661
     57 H15         1.9350    2.8925   -2.1547 H         1 <0>         0.1664
     58 H16         4.3738    2.6194   -3.3381 H         1 <0>         0.4217
     59 H17         2.6743    0.1797   -5.3251 H         1 <0>         0.1608
     60 H18         6.9271    1.9155   -3.4789 H         1 <0>         0.3914
     61 H19         5.7797   -2.5819   -7.4432 H         1 <0>         0.0958
     62 H20         6.5210   -1.2502   -8.3560 H         1 <0>         0.0937
     63 H21         8.6730   -3.9804   -7.2328 H         1 <0>         0.0789
     64 H22         7.6979   -3.3298   -8.5581 H         1 <0>         0.0964
     65 H23        14.3526   -1.5119   -8.8338 H         1 <0>         0.4350
     66 H24        14.9107   -0.0606   -9.4700 H         1 <0>         0.4114
     67 H25        13.8046    0.3978  -11.4901 H         1 <0>         0.4077
     68 H26         8.6099   -0.2559  -11.7377 H         1 <0>         0.0586
     69 H27         7.1238   -1.2131  -11.9462 H         1 <0>         0.0697
     70 H28         7.3060   -0.1493  -10.5308 H         1 <0>         0.0600
     71 H29         9.5198   -3.6894  -10.7903 H         1 <0>         0.0673
     72 H30         8.4508   -3.2034  -12.1280 H         1 <0>         0.0734
     73 H31         9.9722   -2.3253  -11.8405 H         1 <0>         0.0444
     74 H32         3.7738   -1.7516   -9.0218 H         1 <0>         0.0424
     75 H33         2.1233   -1.9800   -8.3956 H         1 <0>         0.0607
     76 H34         2.8674   -0.3632   -8.3745 H         1 <0>         0.0528
     77 H35         3.8212   -2.9994   -5.3022 H         1 <0>         0.0611
     78 H36         2.2660   -3.1211   -6.1594 H         1 <0>         0.0442
     79 H37         3.7422   -3.7908   -6.8946 H         1 <0>         0.0499
     80 H38         0.3151    3.7105   -4.4625 H         1 <0>         0.4346
     81 H39        11.5279   -2.7067   -5.7009 H         1 <0>         0.3878
     82 H40        11.3660    0.1236   -5.8029 H         1 <0>         0.3983
@<TRIPOS>BOND
     1    1    2 1
     2    1   46 1
     3    1   47 1
     4    1   48 1
     5    2    3 1
     6    2    4 1
     7    2    5 1
     8    3   49 1
     9    3   50 1
    10    3   51 1
    11    4   52 1
    12    4   53 1
    13    4   54 1
    14    5    6 1
    15    5   55 1
    16    5   80 1
    17    6    7 1
    18    6   56 1
    19    6   57 1
    20    7    8 2
    21    7    9 am
    22    9   10 1
    23    9   58 1
    24   10   15 ar
    25   10   11 ar
    26   11   12 ar
    27   11   59 1
    28   12   13 ar
    29   12   43 1
    30   13   21 1
    31   13   14 ar
    32   14   15 ar
    33   14   17 1
    34   15   16 1
    35   16   60 1
    36   17   18 1
    37   17   42 2
    38   18   36 2
    39   18   19 1
    40   19   20 1
    41   19   21 1
    42   19   22 1
    43   21   61 1
    44   21   62 1
    45   22   23 1
    46   22   63 1
    47   22   64 1
    48   23   24 1
    49   23   35 1
    50   23   25 1
    51   25   26 1
    52   25   27 1
    53   25   39 1
    54   27   28 2
    55   27   29 1
    56   29   30 2
    57   29   33 1
    58   30   31 1
    59   30   32 1
    60   31   65 1
    61   31   66 1
    62   32   67 1
    63   33   34 2
    64   33   35 1
    65   35   36 1
    66   35   38 1
    67   36   37 1
    68   37   82 1
    69   38   81 1
    70   39   40 1
    71   39   41 1
    72   40   68 1
    73   40   69 1
    74   40   70 1
    75   41   71 1
    76   41   72 1
    77   41   73 1
    78   43   44 1
    79   43   45 1
    80   44   74 1
    81   44   75 1
    82   44   76 1
    83   45   77 1
    84   45   78 1
    85   45   79 1
@<TRIPOS>MOLECULE
ZINC01530733
   56    57     0     0     0
SMALL
USER_CHARGES
isopropyl 2-methoxyethyl 2,6-dimethyl-4-(3-nitrophenyl)-1,4-dihydropyridine-3,5-dicarboxylate
@<TRIPOS>ATOM
      1 C1          0.0022   -0.0040    0.0037 C.2       1 <0>         0.0020
      2 C2         -0.0183    1.5029    0.0114 C.2       1 <0>        -0.0939
      3 C3         -1.1960    2.1449    0.0042 C.3       1 <0>        -0.0780
      4 C4         -1.2683    3.6451    0.0298 C.3       1 <0>         0.0275
      5 H1         -2.0297    3.9779   -0.6756 H         1 <0>         0.1260
      6 C5          0.0548    4.2471   -0.3498 C.3       1 <0>        -0.1183
      7 C6          1.1850    3.5166   -0.3494 C.2       1 <0>         0.1154
      8 N1          1.1621    2.1947    0.0032 N.2       1 <0>        -0.4412
      9 C7          2.4902    4.1599   -0.7411 C.3       1 <0>        -0.0929
     10 C8          0.1134    5.6103   -0.7214 C.2       1 <0>         0.4915
     11 O1          1.1781    6.1113   -1.0313 O.2       1 <0>        -0.4987
     12 O2         -1.0116    6.3556   -0.7325 O.3       1 <0>        -0.3432
     13 C9         -0.8788    7.7251   -1.1181 C.3       1 <0>         0.0816
     14 C10        -2.1737    8.1955   -1.7837 C.3       1 <0>        -0.1514
     15 C11        -0.6026    8.5793    0.1207 C.3       1 <0>        -0.1730
     16 C12        -1.6422    4.1027    1.4161 C.ar      1 <0>        -0.0962
     17 C13        -0.8210    3.8044    2.4875 C.ar      1 <0>        -0.0621
     18 C14        -1.1616    4.2283    3.7583 C.ar      1 <0>        -0.1125
     19 C15        -2.3287    4.9414    3.9595 C.ar      1 <0>        -0.0495
     20 C16        -3.1525    5.2352    2.8890 C.ar      1 <0>        -0.0436
     21 C17        -2.8091    4.8157    1.6172 C.ar      1 <0>        -0.0199
     22 N2         -4.4022    5.9982    3.1045 N.pl3     1 <0>         0.0283
     23 O3         -5.1283    6.2566    2.1613 O.2       1 <0>        -0.1535
     24 O4         -4.7047    6.3678    4.2251 O.3       1 <0>        -0.1589
     25 C18        -2.3946    1.3949   -0.0127 C.2       1 <0>         0.4915
     26 O5         -2.3513    0.1789   -0.0304 O.2       1 <0>        -0.4970
     27 O6         -3.5866    2.0277   -0.0093 O.3       1 <0>        -0.3436
     28 C19        -4.7566    1.2073   -0.0270 C.3       1 <0>         0.0702
     29 C20        -6.0024    2.0955   -0.0201 C.3       1 <0>         0.0611
     30 O7         -6.0537    2.8536   -1.2303 O.3       1 <0>        -0.3863
     31 C21        -7.1854    3.7210   -1.3254 C.3       1 <0>         0.0292
     32 H2          0.4988    4.6175    0.4661 H         1 <0>         0.1444
     33 H3          0.5297   -0.3646    0.8867 H         1 <0>         0.1442
     34 H4         -0.5154   -0.3698   -0.8831 H         1 <0>         0.1489
     35 H5         -1.4765    2.3161   -0.9403 H         1 <0>         0.1012
     36 H6          3.2907    3.4223   -0.6832 H         1 <0>         0.0758
     37 H7          2.4175    4.5376   -1.7610 H         1 <0>         0.0914
     38 H8          2.7067    4.9850   -0.0626 H         1 <0>         0.0809
     39 H9         -0.0516    7.8262   -1.8209 H         1 <0>         0.0888
     40 H10        -3.0007    8.0945   -1.0810 H         1 <0>         0.0699
     41 H11        -2.0723    9.2401   -2.0779 H         1 <0>         0.0813
     42 H12        -2.3704    7.5869   -2.6663 H         1 <0>         0.0673
     43 H13        -1.4297    8.4785    0.8234 H         1 <0>         0.0635
     44 H14         0.3199    8.2443    0.5950 H         1 <0>         0.0597
     45 H15        -0.5013    9.6240   -0.1735 H         1 <0>         0.0788
     46 H16         0.0885    3.2434    2.3311 H         1 <0>         0.1398
     47 H17        -0.5181    3.9984    4.5947 H         1 <0>         0.1517
     48 H18        -2.5971    5.2688    4.9530 H         1 <0>         0.1563
     49 H19        -3.4528    5.0447    0.7809 H         1 <0>         0.1589
     50 H20        -4.7548    0.5912   -0.9262 H         1 <0>         0.0814
     51 H21        -4.7635    0.5650    0.8536 H         1 <0>         0.0871
     52 H22        -6.8930    1.4717    0.0560 H         1 <0>         0.0764
     53 H23        -5.9601    2.7739    0.8321 H         1 <0>         0.0617
     54 H24        -8.1005    3.1309   -1.2764 H         1 <0>         0.0423
     55 H25        -7.1678    4.4331   -0.5003 H         1 <0>         0.0488
     56 H26        -7.1512    4.2605   -2.2718 H         1 <0>         0.0891
@<TRIPOS>BOND
     1    1   33 1
     2    1   34 1
     3    1    2 2
     4    2    3 1
     5    2    8 1
     6    3    4 1
     7    3   25 1
     8    3   35 1
     9    4    5 1
    10    4    6 1
    11    4   16 1
    12    6   10 1
    13    6    7 1
    14    6   32 1
    15    7    9 1
    16    7    8 2
    17    9   36 1
    18    9   37 1
    19    9   38 1
    20   10   11 2
    21   10   12 1
    22   12   13 1
    23   13   14 1
    24   13   15 1
    25   13   39 1
    26   14   40 1
    27   14   41 1
    28   14   42 1
    29   15   43 1
    30   15   44 1
    31   15   45 1
    32   16   21 ar
    33   16   17 ar
    34   17   18 ar
    35   17   46 1
    36   18   19 ar
    37   18   47 1
    38   19   20 ar
    39   19   48 1
    40   20   21 ar
    41   20   22 1
    42   21   49 1
    43   22   23 2
    44   22   24 1
    45   25   26 2
    46   25   27 1
    47   27   28 1
    48   28   29 1
    49   28   50 1
    50   28   51 1
    51   29   30 1
    52   29   52 1
    53   29   53 1
    54   30   31 1
    55   31   54 1
    56   31   55 1
    57   31   56 1
@<TRIPOS>MOLECULE
ZINC14880004
   70    74     0     0     0
SMALL
USER_CHARGES

@<TRIPOS>ATOM
      1 C1          0.3223    2.1198    0.7077 C.3       1 <0>        -0.1790
      2 C2          0.3104    0.5940    0.5949 C.3       1 <0>         0.1785
      3 C3          1.0572    0.1770   -0.6458 C.ar      1 <0>        -0.0807
      4 C4          1.1853    1.0433   -1.7084 C.ar      1 <0>        -0.1378
      5 C5          1.8645    0.6490   -2.8503 C.ar      1 <0>        -0.1113
      6 C6          2.4184   -0.6136   -2.9360 C.ar      1 <0>        -0.1596
      7 C7          2.3023   -1.4982   -1.8742 C.ar      1 <0>         0.1355
      8 C8          1.6207   -1.1004   -0.7156 C.ar      1 <0>        -0.0873
      9 C9          1.5052   -2.0084    0.4353 C.2       1 <0>         0.3410
     10 O1          1.7605   -3.3270    0.2910 O.3       1 <0>        -0.5917
     11 C10         1.1330   -1.5004    1.6678 C.2       1 <0>        -0.4769
     12 C11         0.9799   -0.0116    1.8259 C.3       1 <0>         0.0276
     13 H1          1.9670    0.4345    1.9471 H         1 <0>         0.0503
     14 C12         0.1523    0.3004    3.0755 C.3       1 <0>        -0.0951
     15 C13         0.7784   -0.4389    4.2538 C.3       1 <0>        -0.0753
     16 H2          1.8544   -0.2674    4.2233 H         1 <0>         0.0931
     17 C14         0.2618    0.0710    5.5849 C.3       1 <0>         0.0384
     18 H3          0.2853    1.1607    5.5793 H         1 <0>         0.1326
     19 C15        -1.1397   -0.3838    5.8616 C.2       1 <0>         0.3006
     20 O2         -1.8765    0.2947    6.7538 O.3       1 <0>        -0.5957
     21 C16        -1.6950   -1.4702    5.2330 C.2       1 <0>        -0.4745
     22 C17        -0.9313   -2.2142    4.2325 C.2       1 <0>         0.3926
     23 O3         -1.4765   -3.0339    3.5225 O.2       1 <0>        -0.4685
     24 C18         0.5381   -1.9404    4.1075 C.3       1 <0>         0.0562
     25 C19         0.9416   -2.3808    2.7257 C.2       1 <0>         0.3832
     26 O4          1.1087   -3.5684    2.5250 O.2       1 <0>        -0.4964
     27 O5          1.2642   -2.6575    5.1077 O.3       1 <0>        -0.5663
     28 C20        -3.0654   -1.8887    5.5681 C.2       1 <0>         0.5960
     29 O6         -3.7465   -1.2044    6.3080 O.2       1 <0>        -0.5519
     30 N1         -3.5660   -3.0300    5.0550 N.am      1 <0>        -0.7300
     31 C21        -4.9660   -3.3889    5.2949 C.3       1 <0>         0.2772
     32 N2         -5.7885   -2.9334    4.1663 N.3       1 <0>        -0.5283
     33 C22        -5.8374   -3.9606    3.0945 C.3       1 <0>         0.0349
     34 C23        -7.1026   -3.5723    2.2888 C.3       1 <0>        -0.1225
     35 C24        -8.0824   -3.1031    3.3887 C.3       1 <0>        -0.1291
     36 C25        -7.1910   -2.7202    4.5847 C.3       1 <0>         0.0438
     37 N3          1.1400   -0.4186    6.6560 N.4       1 <0>        -0.3694
     38 C26         2.5255   -0.0206    6.3735 C.3       1 <0>        -0.0477
     39 C27         0.7165    0.1588    7.9387 C.3       1 <0>        -0.0480
     40 O7          2.8444   -2.7392   -1.9561 O.3       1 <0>        -0.4710
     41 O8         -1.0400    0.1338    0.5133 O.3       1 <0>        -0.5299
     42 H4          1.3521    2.4714    0.7715 H         1 <0>         0.0641
     43 H5         -0.1556    2.5528   -0.1711 H         1 <0>         0.0574
     44 H6         -0.2210    2.4222    1.6029 H         1 <0>         0.0676
     45 H7          0.7551    2.0323   -1.6520 H         1 <0>         0.1235
     46 H8          1.9612    1.3341   -3.6797 H         1 <0>         0.1196
     47 H9          2.9425   -0.9125   -3.8317 H         1 <0>         0.1225
     48 H10         0.1635    1.3735    3.2662 H         1 <0>         0.0660
     49 H11        -0.8738   -0.0381    2.9317 H         1 <0>         0.0900
     50 H12         1.1502   -3.6168    5.0646 H         1 <0>         0.4008
     51 H13        -2.9993   -3.6139    4.5270 H         1 <0>         0.4027
     52 H14        -5.0519   -4.4710    5.3937 H         1 <0>         0.0430
     53 H15        -5.3113   -2.9118    6.2121 H         1 <0>         0.0877
     54 H16        -4.9486   -3.9035    2.4661 H         1 <0>         0.0849
     55 H17        -5.9443   -4.9576    3.5218 H         1 <0>         0.0396
     56 H18        -6.8840   -2.7606    1.5950 H         1 <0>         0.0738
     57 H19        -7.5027   -4.4368    1.7590 H         1 <0>         0.0673
     58 H20        -8.6488   -2.2370    3.0464 H         1 <0>         0.0690
     59 H21        -8.7578   -3.9130    3.6643 H         1 <0>         0.0626
     60 H22        -7.4241   -3.3548    5.4397 H         1 <0>         0.0396
     61 H23        -7.3463   -1.6727    4.8431 H         1 <0>         0.0770
     62 H24         2.5673    1.0554    6.2049 H         1 <0>         0.1116
     63 H25         3.1583   -0.2803    7.2221 H         1 <0>         0.1129
     64 H26         2.8790   -0.5418    5.4838 H         1 <0>         0.1272
     65 H27         1.3681   -0.2045    8.7334 H         1 <0>         0.1055
     66 H28         0.7788    1.2457    7.8861 H         1 <0>         0.1109
     67 H29        -0.3116   -0.1365    8.1483 H         1 <0>         0.1396
     68 H30         3.7571   -2.7913   -1.6410 H         1 <0>         0.3825
     69 H31        -1.5284    0.4801   -0.2461 H         1 <0>         0.3629
     70 H32         1.0823   -1.4248    6.7046 H         1 <0>         0.4306
@<TRIPOS>BOND
     1    1    2 1
     2    1   42 1
     3    1   43 1
     4    1   44 1
     5    2   12 1
     6    2    3 1
     7    2   41 1
     8    3    8 ar
     9    3    4 ar
    10    4    5 ar
    11    4   45 1
    12    5    6 ar
    13    5   46 1
    14    6    7 ar
    15    6   47 1
    16    7    8 ar
    17    7   40 1
    18    8    9 1
    19    9   10 1
    20    9   11 2
    21   11   25 1
    22   11   12 1
    23   12   13 1
    24   12   14 1
    25   14   15 1
    26   14   48 1
    27   14   49 1
    28   15   16 1
    29   15   24 1
    30   15   17 1
    31   17   18 1
    32   17   19 1
    33   17   37 1
    34   19   20 1
    35   19   21 2
    36   21   22 1
    37   21   28 1
    38   22   23 2
    39   22   24 1
    40   24   25 1
    41   24   27 1
    42   25   26 2
    43   27   50 1
    44   28   29 2
    45   28   30 am
    46   30   31 1
    47   30   51 1
    48   31   32 1
    49   31   52 1
    50   31   53 1
    51   32   36 1
    52   32   33 1
    53   33   34 1
    54   33   54 1
    55   33   55 1
    56   34   35 1
    57   34   56 1
    58   34   57 1
    59   35   36 1
    60   35   58 1
    61   35   59 1
    62   36   60 1
    63   36   61 1
    64   37   38 1
    65   37   39 1
    66   37   70 1
    67   38   62 1
    68   38   63 1
    69   38   64 1
    70   39   65 1
    71   39   66 1
    72   39   67 1
    73   40   68 1
    74   41   69 1
@<TRIPOS>MOLECULE
ZINC01530733
   56    57     0     0     0
SMALL
USER_CHARGES
isopropyl 2-methoxyethyl 2,6-dimethyl-4-(3-nitrophenyl)-1,4-dihydropyridine-3,5-dicarboxylate
@<TRIPOS>ATOM
      1 C1          0.0022   -0.0040    0.0037 C.2       1 <0>        -0.5450
      2 C2         -0.0183    1.5029    0.0114 C.2       1 <0>         0.3058
      3 C3         -1.1960    2.1449    0.0042 C.3       1 <0>        -0.1544
      4 C4         -1.2682    3.6452    0.0068 C.3       1 <0>         0.0446
      5 H1         -2.0162    3.9783   -0.7127 H         1 <0>         0.1210
      6 C5          0.0619    4.2472   -0.3476 C.3       1 <0>        -0.2944
      7 C6          1.1918    3.5166   -0.3261 C.2       1 <0>         0.2259
      8 N1          1.1621    2.1946    0.0256 N.2       1 <0>        -0.5704
      9 C7          2.5042    4.1598   -0.6931 C.3       1 <0>        -0.0991
     10 C8          0.1276    5.6104   -0.7178 C.2       1 <0>         0.5150
     11 O1          1.1980    6.1114   -1.0075 O.2       1 <0>        -0.5175
     12 O2         -0.9969    6.3559   -0.7498 O.3       1 <0>        -0.3489
     13 C9         -0.8568    7.7255   -1.1325 C.3       1 <0>         0.0822
     14 C10        -2.1389    8.1962   -1.8223 C.3       1 <0>        -0.1503
     15 C11        -0.6039    8.5794    0.1115 C.3       1 <0>        -0.1691
     16 C12        -1.6682    4.1025    1.3860 C.ar      1 <0>        -0.1032
     17 C13        -0.8673    3.8038    2.4725 C.ar      1 <0>        -0.0687
     18 C14        -1.2317    4.2274    3.7368 C.ar      1 <0>        -0.1138
     19 C15        -2.4023    4.9406    3.9161 C.ar      1 <0>        -0.0500
     20 C16        -3.2057    5.2347    2.8305 C.ar      1 <0>        -0.0428
     21 C17        -2.8385    4.8156    1.5652 C.ar      1 <0>        -0.0143
     22 N2         -4.4593    5.9978    3.0226 N.pl3     1 <0>         0.0279
     23 O3         -5.1674    6.2566    2.0660 O.2       1 <0>        -0.1504
     24 O4         -4.7827    6.3672    4.1374 O.3       1 <0>        -0.1597
     25 C18        -2.3946    1.3949   -0.0127 C.2       1 <0>         0.4861
     26 O5         -2.3513    0.1789   -0.0304 O.2       1 <0>        -0.4700
     27 O6         -3.5866    2.0277   -0.0093 O.3       1 <0>        -0.3499
     28 C19        -4.7566    1.2073   -0.0270 C.3       1 <0>         0.0717
     29 C20        -6.0024    2.0955   -0.0201 C.3       1 <0>         0.0606
     30 O7         -6.0537    2.8536   -1.2303 O.3       1 <0>        -0.3834
     31 C21        -7.1854    3.7210   -1.3254 C.3       1 <0>         0.0291
     32 H2          0.6802   -0.4976    0.5484 H         1 <0>         0.2617
     33 H3          0.5297   -0.3646    0.8867 H         1 <0>         0.3432
     34 H4         -0.5154   -0.3698   -0.8831 H         1 <0>         0.1915
     35 H5         -1.4967    2.3003    0.9451 H         1 <0>         0.1697
     36 H6          3.3034    3.4222   -0.6203 H         1 <0>         0.0669
     37 H7          2.4507    4.5378   -1.7141 H         1 <0>         0.0929
     38 H8          2.7079    4.9848   -0.0104 H         1 <0>         0.0906
     39 H9         -0.0165    7.8266   -1.8195 H         1 <0>         0.0830
     40 H10        -2.9790    8.0950   -1.1353 H         1 <0>         0.0672
     41 H11        -2.0319    9.2408   -2.1142 H         1 <0>         0.0766
     42 H12        -2.3190    7.5878   -2.7086 H         1 <0>         0.0651
     43 H13        -1.4441    8.4784    0.7985 H         1 <0>         0.0599
     44 H14         0.3095    8.2441    0.6030 H         1 <0>         0.0586
     45 H15        -0.4970    9.6241   -0.1805 H         1 <0>         0.0735
     46 H16         0.0450    3.2428    2.3332 H         1 <0>         0.1365
     47 H17        -0.6041    3.9973    4.5851 H         1 <0>         0.1508
     48 H18        -2.6893    5.2678    4.9046 H         1 <0>         0.1565
     49 H19        -3.4664    5.0449    0.7170 H         1 <0>         0.1614
     50 H20        -4.7548    0.5912   -0.9262 H         1 <0>         0.0830
     51 H21        -4.7635    0.5650    0.8536 H         1 <0>         0.0844
     52 H22        -6.8930    1.4717    0.0560 H         1 <0>         0.0747
     53 H23        -5.9601    2.7739    0.8321 H         1 <0>         0.0591
     54 H24        -8.1005    3.1309   -1.2764 H         1 <0>         0.0413
     55 H25        -7.1678    4.4331   -0.5003 H         1 <0>         0.0481
     56 H26        -7.1512    4.2605   -2.2718 H         1 <0>         0.0891
@<TRIPOS>BOND
     1    1   33 1
     2    1   34 1
     3    1    2 2
     4    2    3 1
     5    2    8 1
     6    3    4 1
     7    3   25 1
     8    3   35 1
     9    4    5 1
    10    4    6 1
    11    4   16 1
    12    6   10 1
    13    6   32 1
    14    6    7 1
    15    7    9 1
    16    7    8 2
    17    9   36 1
    18    9   37 1
    19    9   38 1
    20   10   11 2
    21   10   12 1
    22   12   13 1
    23   13   14 1
    24   13   15 1
    25   13   39 1
    26   14   40 1
    27   14   41 1
    28   14   42 1
    29   15   43 1
    30   15   44 1
    31   15   45 1
    32   16   21 ar
    33   16   17 ar
    34   17   18 ar
    35   17   46 1
    36   18   19 ar
    37   18   47 1
    38   19   20 ar
    39   19   48 1
    40   20   21 ar
    41   20   22 1
    42   21   49 1
    43   22   23 2
    44   22   24 1
    45   25   26 2
    46   25   27 1
    47   27   28 1
    48   28   29 1
    49   28   50 1
    50   28   51 1
    51   29   30 1
    52   29   52 1
    53   29   53 1
    54   30   31 1
    55   31   54 1
    56   31   55 1
    57   31   56 1
@<TRIPOS>MOLECULE
ZINC19364228
   64    67     0     0     0
SMALL
USER_CHARGES

@<TRIPOS>ATOM
      1 C1         -1.2083    2.6456   -0.4147 C.3       1 <0>        -0.1388
      2 C2         -1.1519    1.1285   -0.2247 C.3       1 <0>        -0.0310
      3 C3         -0.5604    0.8083    1.1496 C.3       1 <0>        -0.1390
      4 C4         -2.5650    0.5498   -0.3191 C.3       1 <0>        -0.1449
      5 C5         -0.2869    0.5196   -1.2981 C.ar      1 <0>        -0.0673
      6 C6         -0.8216   -0.4068   -2.1738 C.ar      1 <0>        -0.1216
      7 C7         -0.0282   -0.9654   -3.1584 C.ar      1 <0>        -0.1117
      8 C8          1.2997   -0.5972   -3.2675 C.ar      1 <0>        -0.0830
      9 C9          1.8342    0.3298   -2.3924 C.ar      1 <0>        -0.0953
     10 C10         1.0397    0.8916   -1.4105 C.ar      1 <0>        -0.1159
     11 C11         2.1649   -1.2069   -4.3403 C.3       1 <0>         0.0954
     12 N1          2.0918   -0.3839   -5.5549 N.3       1 <0>        -0.5333
     13 C12         0.7423   -0.4208   -6.1356 C.3       1 <0>         0.0570
     14 C13         0.6867    0.5091   -7.3499 C.3       1 <0>         0.0593
     15 N2          1.6924    0.0857   -8.3343 N.3       1 <0>        -0.5278
     16 C14         3.0418    0.1227   -7.7536 C.3       1 <0>         0.0571
     17 C15         3.0974   -0.8073   -6.5393 C.3       1 <0>         0.0592
     18 C16         1.6192    0.9087   -9.5490 C.3       1 <0>         0.1677
     19 H1          1.8280    1.9483   -9.2965 H         1 <0>         0.0595
     20 C17         0.2388    0.8038  -10.1444 C.ar      1 <0>        -0.0784
     21 C18        -0.3760   -0.4297  -10.2513 C.ar      1 <0>        -0.0894
     22 C19        -1.6422   -0.5259  -10.7975 C.ar      1 <0>        -0.1234
     23 C20        -2.2938    0.6115  -11.2364 C.ar      1 <0>        -0.1171
     24 C21        -1.6794    1.8451  -11.1287 C.ar      1 <0>        -0.1201
     25 C22        -0.4150    1.9418  -10.5785 C.ar      1 <0>        -0.1123
     26 C23         2.6359    0.4205  -10.5485 C.ar      1 <0>        -0.0714
     27 C24         2.7915   -0.9352  -10.7698 C.ar      1 <0>        -0.0775
     28 C25         3.7238   -1.3835  -11.6864 C.ar      1 <0>        -0.1136
     29 C26         4.5013   -0.4752  -12.3826 C.ar      1 <0>        -0.0327
     30 C27         4.3450    0.8814  -12.1607 C.ar      1 <0>        -0.1104
     31 C28         3.4085    1.3288  -11.2479 C.ar      1 <0>        -0.1000
     32 Cl1         5.6728   -1.0376  -13.5336 Cl        1 <0>        -0.0706
     33 H2         -0.2015    3.0579   -0.3475 H         1 <0>         0.0568
     34 H3         -1.6296    2.8737   -1.3938 H         1 <0>         0.0561
     35 H4         -1.8339    3.0860    0.3616 H         1 <0>         0.0586
     36 H5         -1.1860    1.2487    1.9259 H         1 <0>         0.0587
     37 H6         -0.5202   -0.2725    1.2850 H         1 <0>         0.0561
     38 H7          0.4463    1.2206    1.2169 H         1 <0>         0.0568
     39 H8         -2.9864    0.7779   -1.2982 H         1 <0>         0.0584
     40 H9         -2.5249   -0.5311   -0.1837 H         1 <0>         0.0584
     41 H10        -3.1907    0.9902    0.4573 H         1 <0>         0.0585
     42 H11        -1.8591   -0.6945   -2.0885 H         1 <0>         0.1249
     43 H12        -0.4457   -1.6897   -3.8421 H         1 <0>         0.1167
     44 H13         2.8718    0.6172   -2.4775 H         1 <0>         0.1203
     45 H14         1.4562    1.6186   -0.7291 H         1 <0>         0.1194
     46 H15         3.1972   -1.2511   -3.9930 H         1 <0>         0.0826
     47 H16         1.8128   -2.2143   -4.5622 H         1 <0>         0.0433
     48 H17         0.5079   -1.4390   -6.4462 H         1 <0>         0.0414
     49 H18         0.0171   -0.0912   -5.3916 H         1 <0>         0.0840
     50 H19        -0.3050    0.4612   -7.7996 H         1 <0>         0.0832
     51 H20         0.8944    1.5316   -7.0347 H         1 <0>         0.0427
     52 H21         3.7670   -0.2070   -8.4976 H         1 <0>         0.0833
     53 H22         3.2763    1.1408   -7.4430 H         1 <0>         0.0440
     54 H23         4.0892   -0.7594   -6.0897 H         1 <0>         0.0801
     55 H24         2.8897   -1.8298   -6.8545 H         1 <0>         0.0435
     56 H25         0.1332   -1.3183   -9.9084 H         1 <0>         0.1274
     57 H26        -2.1222   -1.4897  -10.8816 H         1 <0>         0.1213
     58 H27        -3.2828    0.5362  -11.6638 H         1 <0>         0.1207
     59 H28        -2.1884    2.7337  -11.4719 H         1 <0>         0.1217
     60 H29         0.0635    2.9061  -10.4910 H         1 <0>         0.1188
     61 H30         2.1848   -1.6441  -10.2260 H         1 <0>         0.1379
     62 H31         3.8455   -2.4427  -11.8589 H         1 <0>         0.1330
     63 H32         4.9519    1.5909  -12.7036 H         1 <0>         0.1334
     64 H33         3.2831    2.3879  -11.0781 H         1 <0>         0.1294
@<TRIPOS>BOND
     1    1    2 1
     2    1   33 1
     3    1   34 1
     4    1   35 1
     5    2    3 1
     6    2    4 1
     7    2    5 1
     8    3   36 1
     9    3   37 1
    10    3   38 1
    11    4   39 1
    12    4   40 1
    13    4   41 1
    14    5   10 ar
    15    5    6 ar
    16    6    7 ar
    17    6   42 1
    18    7    8 ar
    19    7   43 1
    20    8    9 ar
    21    8   11 1
    22    9   10 ar
    23    9   44 1
    24   10   45 1
    25   11   12 1
    26   11   46 1
    27   11   47 1
    28   12   17 1
    29   12   13 1
    30   13   14 1
    31   13   48 1
    32   13   49 1
    33   14   15 1
    34   14   50 1
    35   14   51 1
    36   15   16 1
    37   15   18 1
    38   16   17 1
    39   16   52 1
    40   16   53 1
    41   17   54 1
    42   17   55 1
    43   18   19 1
    44   18   20 1
    45   18   26 1
    46   20   25 ar
    47   20   21 ar
    48   21   22 ar
    49   21   56 1
    50   22   23 ar
    51   22   57 1
    52   23   24 ar
    53   23   58 1
    54   24   25 ar
    55   24   59 1
    56   25   60 1
    57   26   31 ar
    58   26   27 ar
    59   27   28 ar
    60   27   61 1
    61   28   29 ar
    62   28   62 1
    63   29   30 ar
    64   29   32 1
    65   30   31 ar
    66   30   63 1
    67   31   64 1
@<TRIPOS>MOLECULE
ZINC14879985
   54    57     0     0     0
SMALL
USER_CHARGES

@<TRIPOS>ATOM
      1 C1         -0.0812    1.4694   -0.1354 C.3       1 <0>        -0.0503
      2 N1         -0.0705    0.0019   -0.0703 N.4       1 <0>        -0.3727
      3 C2          0.7606   -0.4321    1.0606 C.3       1 <0>        -0.0506
      4 C3         -1.4425   -0.4901    0.1131 C.3       1 <0>         0.0419
      5 H1         -1.8635   -0.0343    1.0092 H         1 <0>         0.1557
      6 C4         -2.2745   -0.0791   -1.0830 C.3       1 <0>        -0.1203
      7 H2         -2.0687    0.9722   -1.2841 H         1 <0>         0.1063
      8 C5         -3.7725   -0.2157   -0.8240 C.3       1 <0>         0.1262
      9 H3         -4.0604   -1.2663   -0.8603 H         1 <0>         0.1260
     10 C6         -4.4993    0.5608   -1.9229 C.3       1 <0>        -0.0181
     11 H4         -4.2875    1.6237   -1.8068 H         1 <0>         0.1049
     12 C7         -5.9895    0.3419   -1.8218 C.2       1 <0>        -0.1096
     13 C8         -6.5345   -0.2256   -0.7526 C.2       1 <0>        -0.1346
     14 C9         -6.8173    0.7872   -2.9650 C.ar      1 <0>         0.0110
     15 C10        -8.1340    1.1896   -2.7962 C.ar      1 <0>        -0.1324
     16 C11        -8.8661    1.6168   -3.8898 C.ar      1 <0>        -0.0695
     17 C12        -8.2953    1.6476   -5.1492 C.ar      1 <0>        -0.1619
     18 C13        -6.9823    1.2418   -5.3409 C.ar      1 <0>         0.1689
     19 C14        -6.2308    0.7978   -4.2484 C.ar      1 <0>        -0.1865
     20 C15        -4.8473    0.3247   -4.4169 C.2       1 <0>         0.4294
     21 O1         -4.4120    0.1077   -5.5338 O.2       1 <0>        -0.4119
     22 C16        -4.0239    0.1108   -3.2784 C.2       1 <0>        -0.2237
     23 C17        -2.8525   -0.5106   -3.4547 C.2       1 <0>         0.1589
     24 C18        -1.9134   -0.8693   -2.3381 C.3       1 <0>         0.1035
     25 C19        -2.0859   -2.3462   -2.0344 C.2       1 <0>         0.3781
     26 O2         -2.5432   -3.0980   -2.8704 O.2       1 <0>        -0.4706
     27 C20        -1.6923   -2.8493   -0.7200 C.2       1 <0>        -0.4775
     28 C21        -1.4041   -1.9773    0.2972 C.2       1 <0>         0.3081
     29 O3         -1.0760   -2.4736    1.4993 O.3       1 <0>        -0.5588
     30 C22        -1.6053   -4.2999   -0.4881 C.2       1 <0>         0.5866
     31 O4         -1.3903   -4.7251    0.6311 O.2       1 <0>        -0.5477
     32 N2         -1.7637   -5.1573   -1.5158 N.am      1 <0>        -0.8690
     33 O5         -0.5710   -0.5808   -2.7342 O.3       1 <0>        -0.5533
     34 O6         -2.5045   -0.8527   -4.7114 O.3       1 <0>        -0.4387
     35 O7         -6.4312    1.2755   -6.5802 O.3       1 <0>        -0.4781
     36 O8         -4.0962    0.3325    0.4553 O.3       1 <0>        -0.5315
     37 H5          0.9436    1.8389   -0.1733 H         1 <0>         0.1222
     38 H6         -0.6161    1.7896   -1.0295 H         1 <0>         0.1181
     39 H7         -0.5790    1.8687    0.7483 H         1 <0>         0.1189
     40 H8          0.3514   -0.0302    1.9875 H         1 <0>         0.1192
     41 H9          0.7685   -1.5210    1.1089 H         1 <0>         0.1412
     42 H10         1.7786   -0.0670    0.9245 H         1 <0>         0.1131
     43 H11        -5.9035   -0.6179    0.0312 H         1 <0>         0.1320
     44 H12        -7.6088   -0.2950   -0.6665 H         1 <0>         0.1090
     45 H13        -8.5858    1.1692   -1.8155 H         1 <0>         0.1351
     46 H14        -9.8918    1.9284   -3.7590 H         1 <0>         0.1350
     47 H15        -8.8773    1.9907   -5.9918 H         1 <0>         0.1358
     48 H16        -1.8540   -4.8189   -2.4203 H         1 <0>         0.3998
     49 H17        -1.7875   -6.1129   -1.3509 H         1 <0>         0.3876
     50 H18        -0.2845   -1.0544   -3.5271 H         1 <0>         0.4054
     51 H19        -1.6437   -0.5099   -4.9883 H         1 <0>         0.3905
     52 H20        -5.9948    2.1115   -6.7941 H         1 <0>         0.3931
     53 H21        -3.9497    1.2860    0.5231 H         1 <0>         0.3772
     54 H22         0.3083   -0.3701   -0.9283 H         1 <0>         0.4285
@<TRIPOS>BOND
     1    1    2 1
     2    1   37 1
     3    1   38 1
     4    1   39 1
     5    2    3 1
     6    2    4 1
     7    2   54 1
     8    3   40 1
     9    3   41 1
    10    3   42 1
    11    4    5 1
    12    4   28 1
    13    4    6 1
    14    6    7 1
    15    6   24 1
    16    6    8 1
    17    8    9 1
    18    8   10 1
    19    8   36 1
    20   10   11 1
    21   10   22 1
    22   10   12 1
    23   12   13 2
    24   12   14 1
    25   13   43 1
    26   13   44 1
    27   14   19 ar
    28   14   15 ar
    29   15   16 ar
    30   15   45 1
    31   16   17 ar
    32   16   46 1
    33   17   18 ar
    34   17   47 1
    35   18   19 ar
    36   18   35 1
    37   19   20 1
    38   20   21 2
    39   20   22 1
    40   22   23 2
    41   23   24 1
    42   23   34 1
    43   24   25 1
    44   24   33 1
    45   25   26 2
    46   25   27 1
    47   27   28 2
    48   27   30 1
    49   28   29 1
    50   30   31 2
    51   30   32 am
    52   32   48 1
    53   32   49 1
    54   33   50 1
    55   34   51 1
    56   35   52 1
    57   36   53 1
@<TRIPOS>MOLECULE
ZINC19364228
   65    68     0     0     0
SMALL
USER_CHARGES

@<TRIPOS>ATOM
      1 C1         -0.0187    1.5258    0.0104 C.3       1 <0>        -0.1394
      2 C2          0.0021   -0.0041    0.0020 C.3       1 <0>        -0.0341
      3 C3          0.7421   -0.5109    1.2415 C.3       1 <0>        -0.1414
      4 C4         -1.4333   -0.5336    0.0129 C.3       1 <0>        -0.1466
      5 C5          0.7074   -0.4901   -1.2379 C.ar      1 <0>        -0.0543
      6 C6          0.0361   -1.2843   -2.1485 C.ar      1 <0>        -0.1202
      7 C7          0.6831   -1.7301   -3.2859 C.ar      1 <0>        -0.1153
      8 C8          2.0014   -1.3813   -3.5127 C.ar      1 <0>        -0.1016
      9 C9          2.6724   -0.5863   -2.6025 C.ar      1 <0>        -0.0908
     10 C10         2.0241   -0.1370   -1.4673 C.ar      1 <0>        -0.1131
     11 C11         2.7070   -1.8681   -4.7521 C.3       1 <0>         0.0990
     12 N1          2.5196   -0.8950   -5.8365 N.3       1 <0>        -0.5319
     13 C12         1.1099   -0.8283   -6.2466 C.3       1 <0>         0.0237
     14 C13         0.9477    0.2366   -7.3335 C.3       1 <0>        -0.0027
     15 N2          1.7946   -0.1050   -8.4840 N.4       1 <0>        -0.3841
     16 C14         3.2016   -0.1436   -8.0642 C.3       1 <0>        -0.0044
     17 C15         3.3825   -1.2117   -6.9834 C.3       1 <0>         0.0280
     18 C16         1.6249    0.9079   -9.5344 C.3       1 <0>         0.1346
     19 H1          1.9145    1.8848   -9.1472 H         1 <0>         0.1514
     20 C17         0.1817    0.9465   -9.9666 C.ar      1 <0>        -0.1332
     21 C18        -0.5335   -0.2296  -10.0934 C.ar      1 <0>        -0.1219
     22 C19        -1.8573   -0.1942  -10.4898 C.ar      1 <0>        -0.1021
     23 C20        -2.4660    1.0173  -10.7591 C.ar      1 <0>        -0.0911
     24 C21        -1.7510    2.1935  -10.6314 C.ar      1 <0>        -0.1028
     25 C22        -0.4285    2.1584  -10.2308 C.ar      1 <0>        -0.0856
     26 C23         2.4936    0.5577  -10.7149 C.ar      1 <0>        -0.1291
     27 C24         2.6102   -0.7586  -11.1207 C.ar      1 <0>        -0.1079
     28 C25         3.4068   -1.0804  -12.2033 C.ar      1 <0>        -0.0955
     29 C26         4.0876   -0.0848  -12.8811 C.ar      1 <0>        -0.0145
     30 C27         3.9706    1.2325  -12.4745 C.ar      1 <0>        -0.0962
     31 C28         3.1692    1.5537  -11.3952 C.ar      1 <0>        -0.0718
     32 Cl1         5.0888   -0.4882  -14.2407 Cl        1 <0>        -0.0384
     33 H2          1.0039    1.9031    0.0027 H         1 <0>         0.0575
     34 H3         -0.5459    1.8868   -0.8726 H         1 <0>         0.0552
     35 H4         -0.5289    1.8773    0.9072 H         1 <0>         0.0627
     36 H5          0.2319   -0.1594    2.1383 H         1 <0>         0.0629
     37 H6          0.7568   -1.6008    1.2356 H         1 <0>         0.0573
     38 H7          1.7647   -0.1336    1.2338 H         1 <0>         0.0579
     39 H8         -1.9605   -0.1726   -0.8702 H         1 <0>         0.0577
     40 H9         -1.4185   -1.6235    0.0069 H         1 <0>         0.0592
     41 H10        -1.9435   -0.1821    0.9097 H         1 <0>         0.0625
     42 H11        -0.9938   -1.5568   -1.9713 H         1 <0>         0.1288
     43 H12         0.1588   -2.3512   -3.9970 H         1 <0>         0.1161
     44 H13         3.7024   -0.3141   -2.7796 H         1 <0>         0.1226
     45 H14         2.5473    0.4872   -0.7580 H         1 <0>         0.1243
     46 H15         3.7711   -1.9799   -4.5441 H         1 <0>         0.0961
     47 H16         2.2923   -2.8305   -5.0520 H         1 <0>         0.0543
     48 H17         0.7986   -1.7971   -6.6373 H         1 <0>         0.0586
     49 H18         0.4929   -0.5672   -5.3867 H         1 <0>         0.1285
     50 H19        -0.0947    0.2777   -7.6492 H         1 <0>         0.1364
     51 H20         1.2462    1.2076   -6.9382 H         1 <0>         0.1397
     52 H21         3.8301   -0.3843   -8.9216 H         1 <0>         0.1360
     53 H22         3.4885    0.8293   -7.6652 H         1 <0>         0.1407
     54 H23         4.4236   -1.2303   -6.6610 H         1 <0>         0.1260
     55 H24         3.1086   -2.1868   -7.3862 H         1 <0>         0.0597
     56 H25        -0.0579   -1.1762   -9.8830 H         1 <0>         0.1135
     57 H26        -2.4159   -1.1131  -10.5896 H         1 <0>         0.1355
     58 H27        -3.5001    1.0450  -11.0695 H         1 <0>         0.1364
     59 H28        -2.2265    3.1401  -10.8421 H         1 <0>         0.1380
     60 H29         0.1290    3.0776  -10.1275 H         1 <0>         0.1339
     61 H30         2.0790   -1.5358  -10.5913 H         1 <0>         0.1235
     62 H31         3.4981   -2.1089  -12.5200 H         1 <0>         0.1463
     63 H32         4.5021    2.0101  -13.0030 H         1 <0>         0.1487
     64 H33         3.0740    2.5825  -11.0807 H         1 <0>         0.1439
     65 H34         1.5258   -1.0090   -8.8426 H         1 <0>         0.4131
@<TRIPOS>BOND
     1    1    2 1
     2    1   33 1
     3    1   34 1
     4    1   35 1
     5    2    3 1
     6    2    4 1
     7    2    5 1
     8    3   36 1
     9    3   37 1
    10    3   38 1
    11    4   39 1
    12    4   40 1
    13    4   41 1
    14    5   10 ar
    15    5    6 ar
    16    6    7 ar
    17    6   42 1
    18    7    8 ar
    19    7   43 1
    20    8    9 ar
    21    8   11 1
    22    9   10 ar
    23    9   44 1
    24   10   45 1
    25   11   12 1
    26   11   46 1
    27   11   47 1
    28   12   17 1
    29   12   13 1
    30   13   14 1
    31   13   48 1
    32   13   49 1
    33   14   15 1
    34   14   50 1
    35   14   51 1
    36   15   16 1
    37   15   18 1
    38   15   65 1
    39   16   17 1
    40   16   52 1
    41   16   53 1
    42   17   54 1
    43   17   55 1
    44   18   19 1
    45   18   20 1
    46   18   26 1
    47   20   25 ar
    48   20   21 ar
    49   21   22 ar
    50   21   56 1
    51   22   23 ar
    52   22   57 1
    53   23   24 ar
    54   23   58 1
    55   24   25 ar
    56   24   59 1
    57   25   60 1
    58   26   31 ar
    59   26   27 ar
    60   27   28 ar
    61   27   61 1
    62   28   29 ar
    63   28   62 1
    64   29   30 ar
    65   29   32 1
    66   30   31 ar
    67   30   63 1
    68   31   64 1
@<TRIPOS>MOLECULE
ZINC04676424
   42    44     0     0     0
SMALL
USER_CHARGES

@<TRIPOS>ATOM
      1 C1         -0.0173    1.4248    0.0099 C.3       1 <0>         0.0040
      2 O1          0.0021   -0.0041    0.0020 O.3       1 <0>        -0.2635
      3 C2         -1.1997   -0.6372    0.0101 C.ar      1 <0>         0.2357
      4 C3         -2.3874    0.0867    0.0195 C.ar      1 <0>        -0.2193
      5 C4         -3.5892   -0.5929    0.0270 C.ar      1 <0>         0.1798
      6 N1         -3.6222   -1.9117    0.0259 N.ar      1 <0>        -0.4604
      7 C5         -2.5196   -2.6368    0.0176 C.ar      1 <0>         0.1779
      8 C6         -1.2748   -2.0317    0.0033 C.ar      1 <0>         0.0673
      9 O2         -0.1418   -2.7839   -0.0111 O.3       1 <0>        -0.2910
     10 C7          0.4104   -3.1495    1.2552 C.3       1 <0>         0.0201
     11 C8         -2.6170   -4.1407    0.0172 C.3       1 <0>        -0.4718
     12 S1         -2.6681   -4.7429   -1.6932 S.o       1 <0>         1.4375
     13 O3         -1.4028   -4.5365   -2.3060 O.2       1 <0>        -0.7850
     14 C9         -2.7802   -6.4933   -1.5256 C.2       1 <0>        -0.0952
     15 N2         -1.7163   -7.3397   -1.4540 N.pl3     1 <0>        -0.5646
     16 H1         -0.7796   -7.0898   -1.4854 H         1 <0>         0.4315
     17 C10        -2.2179   -8.6198   -1.3280 C.ar      1 <0>         0.1101
     18 C11        -1.6397   -9.8765   -1.2136 C.ar      1 <0>        -0.1491
     19 C12        -2.4474  -10.9935   -1.1009 C.ar      1 <0>         0.1548
     20 C13        -3.8334  -10.8619   -1.1018 C.ar      1 <0>        -0.1906
     21 C14        -4.4151   -9.6316   -1.2136 C.ar      1 <0>        -0.0044
     22 C15        -3.6169   -8.4902   -1.3286 C.ar      1 <0>         0.0091
     23 N3         -3.8914   -7.1647   -1.4467 N.2       1 <0>        -0.3910
     24 O4         -1.8851  -12.2262   -0.9892 O.3       1 <0>        -0.3149
     25 C16        -2.7760  -13.3378   -0.8763 C.3       1 <0>         0.4131
     26 F1         -3.5725  -13.1832    0.2634 F         1 <0>        -0.1941
     27 F2         -3.5922  -13.3984   -2.0109 F         1 <0>        -0.1931
     28 H2          1.0053    1.8021    0.0021 H         1 <0>         0.1298
     29 H3         -0.5445    1.7859   -0.8732 H         1 <0>         0.0810
     30 H4         -0.5275    1.7763    0.9067 H         1 <0>         0.0794
     31 H5         -2.3698    1.1666    0.0212 H         1 <0>         0.1953
     32 H6         -4.5152   -0.0371    0.0343 H         1 <0>         0.2236
     33 H7          0.6638   -2.2490    1.8147 H         1 <0>         0.0650
     34 H8         -0.3207   -3.7319    1.8158 H         1 <0>         0.0564
     35 H9          1.3093   -3.7464    1.1009 H         1 <0>         0.1186
     36 H10        -1.7487   -4.5611    0.5246 H         1 <0>         0.1453
     37 H11        -3.5249   -4.4461    0.5372 H         1 <0>         0.1669
     38 H12        -0.5648   -9.9815   -1.2130 H         1 <0>         0.1424
     39 H13        -4.4544  -11.7412   -1.0136 H         1 <0>         0.1496
     40 H14        -5.4912   -9.5406   -1.2129 H         1 <0>         0.1480
     41 H15        -2.1991  -14.2590   -0.7941 H         1 <0>         0.1900
     42 H16        -4.4817   -2.3614    0.0316 H         1 <0>         0.4560
@<TRIPOS>BOND
     1    1    2 1
     2    1   28 1
     3    1   29 1
     4    1   30 1
     5    2    3 1
     6    3    8 ar
     7    3    4 ar
     8    4    5 ar
     9    4   31 1
    10    5    6 ar
    11    5   32 1
    12    6    7 ar
    13    6   42 1
    14    7    8 ar
    15    7   11 1
    16    8    9 1
    17    9   10 1
    18   10   33 1
    19   10   34 1
    20   10   35 1
    21   11   12 1
    22   11   36 1
    23   11   37 1
    24   12   13 2
    25   12   14 1
    26   14   23 2
    27   14   15 1
    28   15   16 1
    29   15   17 1
    30   17   22 ar
    31   17   18 ar
    32   18   19 ar
    33   18   38 1
    34   19   20 ar
    35   19   24 1
    36   20   21 ar
    37   20   39 1
    38   21   22 ar
    39   21   40 1
    40   22   23 1
    41   24   25 1
    42   25   26 1
    43   25   27 1
    44   25   41 1
@<TRIPOS>MOLECULE
ZINC04099200
   42    44     0     0     0
SMALL
USER_CHARGES

@<TRIPOS>ATOM
      1 C1         -0.0173    1.4248    0.0099 C.3       1 <0>         0.0036
      2 O1          0.0021   -0.0041    0.0020 O.3       1 <0>        -0.2621
      3 C2         -1.1997   -0.6372    0.0101 C.ar      1 <0>         0.2374
      4 C3         -2.3874    0.0867    0.0195 C.ar      1 <0>        -0.2185
      5 C4         -3.5892   -0.5929    0.0270 C.ar      1 <0>         0.1817
      6 N1         -3.6222   -1.9117    0.0259 N.ar      1 <0>        -0.4623
      7 C5         -2.5196   -2.6368    0.0176 C.ar      1 <0>         0.1812
      8 C6         -1.2748   -2.0317    0.0033 C.ar      1 <0>         0.0653
      9 O2         -0.1418   -2.7839   -0.0111 O.3       1 <0>        -0.2947
     10 C7          0.4104   -3.1495    1.2552 C.3       1 <0>         0.0180
     11 C8         -2.6170   -4.1407    0.0172 C.3       1 <0>        -0.4695
     12 S1         -2.6681   -4.7429   -1.6932 S.o       1 <0>         1.4351
     13 O3         -3.9049   -4.3746   -2.2882 O.2       1 <0>        -0.7814
     14 C9         -2.7802   -6.4933   -1.5256 C.2       1 <0>        -0.0979
     15 N2         -1.7163   -7.3397   -1.4540 N.pl3     1 <0>        -0.5548
     16 H1         -0.7796   -7.0898   -1.4854 H         1 <0>         0.4333
     17 C10        -2.2179   -8.6198   -1.3280 C.ar      1 <0>         0.1129
     18 C11        -1.6397   -9.8765   -1.2136 C.ar      1 <0>        -0.1469
     19 C12        -2.4474  -10.9935   -1.1009 C.ar      1 <0>         0.1544
     20 C13        -3.8334  -10.8619   -1.1018 C.ar      1 <0>        -0.1907
     21 C14        -4.4151   -9.6316   -1.2136 C.ar      1 <0>        -0.0060
     22 C15        -3.6169   -8.4902   -1.3286 C.ar      1 <0>         0.0057
     23 N3         -3.8914   -7.1647   -1.4467 N.2       1 <0>        -0.4028
     24 O4         -1.8852  -12.2262   -0.9892 O.3       1 <0>        -0.3142
     25 C16        -2.7760  -13.3378   -0.8763 C.3       1 <0>         0.4129
     26 F1         -3.5725  -13.1832    0.2634 F         1 <0>        -0.1944
     27 F2         -3.5922  -13.3984   -2.0109 F         1 <0>        -0.1934
     28 H2          1.0053    1.8021    0.0021 H         1 <0>         0.1307
     29 H3         -0.5445    1.7859   -0.8732 H         1 <0>         0.0807
     30 H4         -0.5275    1.7763    0.9067 H         1 <0>         0.0788
     31 H5         -2.3698    1.1666    0.0212 H         1 <0>         0.1958
     32 H6         -4.5152   -0.0371    0.0343 H         1 <0>         0.2204
     33 H7          0.6638   -2.2490    1.8147 H         1 <0>         0.0641
     34 H8         -0.3207   -3.7319    1.8158 H         1 <0>         0.0591
     35 H9          1.3093   -3.7464    1.1009 H         1 <0>         0.1233
     36 H10        -1.7487   -4.5611    0.5246 H         1 <0>         0.1708
     37 H11        -3.5249   -4.4461    0.5372 H         1 <0>         0.1409
     38 H12        -0.5648   -9.9815   -1.2130 H         1 <0>         0.1459
     39 H13        -4.4544  -11.7412   -1.0136 H         1 <0>         0.1488
     40 H14        -5.4912   -9.5406   -1.2129 H         1 <0>         0.1441
     41 H15        -2.1991  -14.2590   -0.7941 H         1 <0>         0.1903
     42 H16        -4.4817   -2.3614    0.0316 H         1 <0>         0.4545
@<TRIPOS>BOND
     1    1    2 1
     2    1   28 1
     3    1   29 1
     4    1   30 1
     5    2    3 1
     6    3    8 ar
     7    3    4 ar
     8    4    5 ar
     9    4   31 1
    10    5    6 ar
    11    5   32 1
    12    6    7 ar
    13    6   42 1
    14    7    8 ar
    15    7   11 1
    16    8    9 1
    17    9   10 1
    18   10   33 1
    19   10   34 1
    20   10   35 1
    21   11   12 1
    22   11   36 1
    23   11   37 1
    24   12   13 2
    25   12   14 1
    26   14   23 2
    27   14   15 1
    28   15   16 1
    29   15   17 1
    30   17   22 ar
    31   17   18 ar
    32   18   19 ar
    33   18   38 1
    34   19   20 ar
    35   19   24 1
    36   20   21 ar
    37   20   39 1
    38   21   22 ar
    39   21   40 1
    40   22   23 1
    41   24   25 1
    42   25   26 1
    43   25   27 1
    44   25   41 1
@<TRIPOS>MOLECULE
ZINC00075126
   41    44     0     0     0
SMALL
USER_CHARGES

@<TRIPOS>ATOM
      1 C1         -0.0184    1.5028    0.0103 C.3       1 <0>        -0.0661
      2 C2          0.0021   -0.0041    0.0020 C.2       1 <0>         0.1869
      3 N1          0.0080   -0.7588   -1.0626 N.2       1 <0>        -0.4889
      4 C3          0.0275   -2.0475   -0.6911 C.2       1 <0>        -0.0505
      5 C4          0.0339   -2.0930    0.6548 C.2       1 <0>         0.0014
      6 N2          0.0232   -0.7970    1.0950 N.pl3     1 <0>        -0.4534
      7 C5          0.0304   -0.3529    2.4910 C.3       1 <0>         0.1206
      8 C6         -1.4059   -0.0982    2.9525 C.3       1 <0>        -0.1509
      9 H1         -1.8841    0.6077    2.2734 H         1 <0>         0.1102
     10 C7         -1.3885    0.4885    4.3640 C.3       1 <0>        -0.1025
     11 C8         -2.8183    0.7509    4.8527 C.3       1 <0>        -0.0640
     12 C9         -3.5900   -0.5440    4.7622 C.2       1 <0>         0.1489
     13 C10        -3.2525   -1.5391    3.8511 C.2       1 <0>        -0.2766
     14 C11        -4.1973   -2.6242    4.0575 C.ar      1 <0>        -0.0486
     15 C12        -4.3599   -3.8715    3.4560 C.ar      1 <0>        -0.0694
     16 C13        -5.3958   -4.6619    3.9235 C.ar      1 <0>        -0.1332
     17 C14        -6.2353   -4.2398    4.9399 C.ar      1 <0>        -0.1059
     18 C15        -6.0913   -3.0056    5.5500 C.ar      1 <0>        -0.1184
     19 C16        -5.0557   -2.1905    5.0985 C.ar      1 <0>         0.0708
     20 N3         -4.6518   -0.9388    5.4840 N.pl3     1 <0>        -0.4469
     21 C17        -5.2885   -0.1432    6.5366 C.3       1 <0>         0.0636
     22 C18        -2.1743   -1.4014    2.9445 C.2       1 <0>         0.4259
     23 O1         -1.8781   -2.2996    2.1833 O.2       1 <0>        -0.4545
     24 H2          1.0042    1.8801    0.0026 H         1 <0>         0.0774
     25 H3         -0.5455    1.8639   -0.8728 H         1 <0>         0.0878
     26 H4         -0.5286    1.8543    0.9071 H         1 <0>         0.0677
     27 H5          0.0365   -2.8993   -1.3550 H         1 <0>         0.1650
     28 H6          0.0489   -2.9814    1.2688 H         1 <0>         0.1714
     29 H7          0.4812   -1.1244    3.1154 H         1 <0>         0.0947
     30 H8          0.6082    0.5674    2.5767 H         1 <0>         0.0991
     31 H9         -0.8997   -0.2132    5.0399 H         1 <0>         0.0787
     32 H10        -0.8320    1.4257    4.3579 H         1 <0>         0.0916
     33 H11        -2.7965    1.0950    5.8867 H         1 <0>         0.0925
     34 H12        -3.2899    1.5053    4.2230 H         1 <0>         0.0998
     35 H13        -3.7083   -4.2053    2.6621 H         1 <0>         0.1378
     36 H14        -5.5535   -5.6351    3.4825 H         1 <0>         0.1237
     37 H15        -7.0290   -4.8948    5.2675 H         1 <0>         0.1251
     38 H16        -6.7537   -2.6880    6.3417 H         1 <0>         0.1289
     39 H17        -6.0755    0.4723    6.1009 H         1 <0>         0.0805
     40 H18        -5.7197   -0.8087    7.2844 H         1 <0>         0.0898
     41 H19        -4.5439    0.4986    7.0075 H         1 <0>         0.0898
@<TRIPOS>BOND
     1    1    2 1
     2    1   24 1
     3    1   25 1
     4    1   26 1
     5    2    6 1
     6    2    3 2
     7    3    4 1
     8    4    5 2
     9    4   27 1
    10    5    6 1
    11    5   28 1
    12    6    7 1
    13    7    8 1
    14    7   29 1
    15    7   30 1
    16    8    9 1
    17    8   22 1
    18    8   10 1
    19   10   11 1
    20   10   31 1
    21   10   32 1
    22   11   12 1
    23   11   33 1
    24   11   34 1
    25   12   20 1
    26   12   13 2
    27   13   14 1
    28   13   22 1
    29   14   19 ar
    30   14   15 ar
    31   15   16 ar
    32   15   35 1
    33   16   17 ar
    34   16   36 1
    35   17   18 ar
    36   17   37 1
    37   18   19 ar
    38   18   38 1
    39   19   20 1
    40   20   21 1
    41   21   39 1
    42   21   40 1
    43   21   41 1
    44   22   23 2
@<TRIPOS>MOLECULE
ZINC19364229
   52    54     0     0     0
SMALL
USER_CHARGES

@<TRIPOS>ATOM
      1 C1         -0.0167    1.3781    0.0096 C.ar      1 <0>        -0.0938
      2 C2          1.1709    2.0855    0.0021 C.ar      1 <0>        -0.1039
      3 C3          2.3773    1.4107   -0.0130 C.ar      1 <0>        -0.0846
      4 C4          2.3960    0.0285   -0.0201 C.ar      1 <0>        -0.1289
      5 C5          1.2084   -0.6789   -0.0117 C.ar      1 <0>        -0.1207
      6 C6          0.0021   -0.0041    0.0020 C.ar      1 <0>        -0.1038
      7 C7          3.7112   -0.7071   -0.0376 C.3       1 <0>         0.1307
      8 H1          4.4960   -0.0399   -0.3940 H         1 <0>         0.1535
      9 C8          4.0438   -1.1746    1.3559 C.ar      1 <0>        -0.1230
     10 C9          3.4553   -2.3197    1.8594 C.ar      1 <0>        -0.1076
     11 C10         3.7599   -2.7490    3.1374 C.ar      1 <0>        -0.0962
     12 C11         4.6540   -2.0325    3.9128 C.ar      1 <0>        -0.0164
     13 C12         5.2427   -0.8866    3.4084 C.ar      1 <0>        -0.0964
     14 C13         4.9415   -0.4614    2.1282 C.ar      1 <0>        -0.0716
     15 Cl1         5.0367   -2.5708    5.5182 Cl        1 <0>        -0.0442
     16 N1          3.6112   -1.8677   -0.9326 N.4       1 <0>        -0.3824
     17 C14         4.8926   -2.5855   -0.9481 C.3       1 <0>        -0.0053
     18 C15         4.7832   -3.8052   -1.8657 C.3       1 <0>         0.0318
     19 N2          4.4330   -3.3636   -3.2231 N.3       1 <0>        -0.5227
     20 C16         3.1643   -2.6216   -3.2195 C.3       1 <0>         0.0268
     21 C17         3.2871   -1.4117   -2.2908 C.3       1 <0>        -0.0033
     22 C18         4.3739   -4.5029   -4.1485 C.3       1 <0>         0.0634
     23 C19         4.2557   -3.9880   -5.5844 C.3       1 <0>         0.0513
     24 O1          5.4449   -3.2774   -5.9351 O.3       1 <0>        -0.3439
     25 C20         5.4375   -2.7520   -7.2639 C.3       1 <0>        -0.0031
     26 C21         6.7324   -2.0264   -7.5244 C.2       1 <0>         0.4973
     27 O2          7.5828   -1.9651   -6.6529 O.co2     1 <0>        -0.6762
     28 O3          6.9297   -1.5009   -8.6067 O.co2     1 <0>        -0.6917
     29 H2         -0.9591    1.9053    0.0259 H         1 <0>         0.1345
     30 H3          1.1563    3.1654    0.0076 H         1 <0>         0.1368
     31 H4          3.3051    1.9634   -0.0196 H         1 <0>         0.1349
     32 H5          1.2231   -1.7588   -0.0176 H         1 <0>         0.1142
     33 H6         -0.9258   -0.5567    0.0082 H         1 <0>         0.1340
     34 H7          2.7571   -2.8788    1.2541 H         1 <0>         0.1242
     35 H8          3.2998   -3.6435    3.5307 H         1 <0>         0.1450
     36 H9          5.9405   -0.3266    4.0133 H         1 <0>         0.1476
     37 H10         5.4046    0.4305    1.7325 H         1 <0>         0.1449
     38 H11         5.6758   -1.9229   -1.3163 H         1 <0>         0.1445
     39 H12         5.1384   -2.9120    0.0624 H         1 <0>         0.1326
     40 H13         5.7385   -4.3296   -1.8890 H         1 <0>         0.1260
     41 H14         4.0094   -4.4747   -1.4901 H         1 <0>         0.0529
     42 H15         2.9384   -2.2826   -4.2306 H         1 <0>         0.1263
     43 H16         2.3638   -3.2716   -2.8662 H         1 <0>         0.0536
     44 H17         2.3425   -0.8679   -2.2757 H         1 <0>         0.1338
     45 H18         4.0785   -0.7551   -2.6521 H         1 <0>         0.1444
     46 H19         5.2814   -5.0987   -4.0497 H         1 <0>         0.0976
     47 H20         3.5069   -5.1194   -3.9110 H         1 <0>         0.0530
     48 H21         4.1227   -4.8308   -6.2628 H         1 <0>         0.0514
     49 H22         3.3975   -3.3205   -5.6616 H         1 <0>         0.0377
     50 H23         5.3290   -3.5690   -7.9771 H         1 <0>         0.0441
     51 H24         4.6038   -2.0588   -7.3759 H         1 <0>         0.0411
     52 H25         2.8844   -2.4849   -0.6028 H         1 <0>         0.4098
@<TRIPOS>BOND
     1    1    6 ar
     2    1    2 ar
     3    1   29 1
     4    2    3 ar
     5    2   30 1
     6    3    4 ar
     7    3   31 1
     8    4    5 ar
     9    4    7 1
    10    5    6 ar
    11    5   32 1
    12    6   33 1
    13    7    8 1
    14    7    9 1
    15    7   16 1
    16    9   14 ar
    17    9   10 ar
    18   10   11 ar
    19   10   34 1
    20   11   12 ar
    21   11   35 1
    22   12   13 ar
    23   12   15 1
    24   13   14 ar
    25   13   36 1
    26   14   37 1
    27   16   21 1
    28   16   17 1
    29   16   52 1
    30   17   18 1
    31   17   38 1
    32   17   39 1
    33   18   19 1
    34   18   40 1
    35   18   41 1
    36   19   20 1
    37   19   22 1
    38   20   21 1
    39   20   42 1
    40   20   43 1
    41   21   44 1
    42   21   45 1
    43   22   23 1
    44   22   46 1
    45   22   47 1
    46   23   24 1
    47   23   48 1
    48   23   49 1
    49   24   25 1
    50   25   26 1
    51   25   50 1
    52   25   51 1
    53   26   27 2
    54   26   28 1
@<TRIPOS>MOLECULE
ZINC00075008
   31    32     0     0     0
SMALL
USER_CHARGES

@<TRIPOS>ATOM
      1 C1         -0.0187    1.5258    0.0104 C.3       1 <0>        -0.1655
      2 C2          0.0021   -0.0041    0.0020 C.3       1 <0>        -0.1099
      3 C3          0.7182   -0.4975   -1.2568 C.3       1 <0>        -0.1502
      4 H1          1.7087   -0.0489   -1.3325 H         1 <0>         0.1225
      5 C4          0.8208   -2.0441   -1.2529 C.3       1 <0>        -0.1162
      6 H2          1.7701   -2.3766   -1.6729 H         1 <0>         0.1082
      7 C5         -0.3648   -2.4146   -2.1843 C.3       1 <0>         0.0561
      8 O1         -0.3610   -1.3385   -3.1463 O.3       1 <0>        -0.3457
      9 C6         -0.1032   -0.1851   -2.4931 C.2       1 <0>         0.4842
     10 O2         -0.4675    0.9151   -2.8345 O.2       1 <0>        -0.4382
     11 C7          0.6159   -2.6078    0.1546 C.3       1 <0>        -0.0312
     12 C8          0.8442   -4.0973    0.1373 C.2       1 <0>        -0.0343
     13 C9          2.0273   -4.7295    0.2567 C.2       1 <0>        -0.0169
     14 N1          1.8006   -6.0499    0.1913 N.2       1 <0>        -0.4919
     15 C10         0.5220   -6.2599    0.0360 C.2       1 <0>         0.1849
     16 N2         -0.1117   -5.0679    0.0033 N.pl3     1 <0>        -0.4594
     17 C11        -1.5528   -4.8533   -0.1503 C.3       1 <0>         0.0647
     18 H3          1.0039    1.9031    0.0027 H         1 <0>         0.0585
     19 H4         -0.5459    1.8868   -0.8726 H         1 <0>         0.0703
     20 H5         -0.5289    1.8773    0.9072 H         1 <0>         0.0597
     21 H6          0.5293   -0.3651    0.8851 H         1 <0>         0.0843
     22 H7         -1.0205   -0.3814    0.0098 H         1 <0>         0.0649
     23 H8         -0.1867   -3.3717   -2.6745 H         1 <0>         0.1115
     24 H9         -1.3021   -2.4325   -1.6283 H         1 <0>         0.0791
     25 H10         1.3226   -2.1398    0.8399 H         1 <0>         0.1014
     26 H11        -0.4020   -2.4001    0.4846 H         1 <0>         0.0781
     27 H12         2.9898   -4.2563    0.3829 H         1 <0>         0.1692
     28 H13         0.0486   -7.2270   -0.0483 H         1 <0>         0.2058
     29 H14        -1.7970   -4.7706   -1.2094 H         1 <0>         0.0786
     30 H15        -2.0935   -5.6949    0.2826 H         1 <0>         0.0920
     31 H16        -1.8400   -3.9349    0.3617 H         1 <0>         0.0854
@<TRIPOS>BOND
     1    1    2 1
     2    1   18 1
     3    1   19 1
     4    1   20 1
     5    2    3 1
     6    2   21 1
     7    2   22 1
     8    3    4 1
     9    3    9 1
    10    3    5 1
    11    5    6 1
    12    5    7 1
    13    5   11 1
    14    7    8 1
    15    7   23 1
    16    7   24 1
    17    8    9 1
    18    9   10 2
    19   11   12 1
    20   11   25 1
    21   11   26 1
    22   12   16 1
    23   12   13 2
    24   13   14 1
    25   13   27 1
    26   14   15 2
    27   15   16 1
    28   15   28 1
    29   16   17 1
    30   17   29 1
    31   17   30 1
    32   17   31 1
@<TRIPOS>MOLECULE
ZINC19364229
   51    53     0     0     0
SMALL
USER_CHARGES

@<TRIPOS>ATOM
      1 C1          6.5912    1.7379   -2.0312 C.ar      1 <0>        -0.1201
      2 C2          6.6450    1.5865   -0.6583 C.ar      1 <0>        -0.1210
      3 C3          5.7129    0.7954   -0.0131 C.ar      1 <0>        -0.1114
      4 C4          4.7267    0.1561   -0.7408 C.ar      1 <0>        -0.0735
      5 C5          4.6724    0.3082   -2.1137 C.ar      1 <0>        -0.0888
      6 C6          5.6053    1.0982   -2.7590 C.ar      1 <0>        -0.1250
      7 C7          3.7112   -0.7071   -0.0376 C.3       1 <0>         0.1625
      8 H1          4.0570   -0.9251    0.9729 H         1 <0>         0.0613
      9 C8          2.3931    0.0205    0.0286 C.ar      1 <0>        -0.0653
     10 C9          1.6019    0.1210   -1.1005 C.ar      1 <0>        -0.0767
     11 C10         0.3930    0.7882   -1.0405 C.ar      1 <0>        -0.1145
     12 C11        -0.0253    1.3555    0.1500 C.ar      1 <0>        -0.0345
     13 C12         0.7669    1.2545    1.2798 C.ar      1 <0>        -0.1109
     14 C13         1.9731    0.5822    1.2199 C.ar      1 <0>        -0.0996
     15 Cl1        -1.5434    2.1941    0.2261 Cl        1 <0>        -0.0764
     16 N1          3.5400   -1.9641   -0.7783 N.3       1 <0>        -0.5277
     17 C14         2.5171   -2.8110   -0.1492 C.3       1 <0>         0.0560
     18 C15         2.3125   -4.0714   -0.9930 C.3       1 <0>         0.0629
     19 N2          3.5884   -4.7911   -1.1110 N.3       1 <0>        -0.5250
     20 C16         4.6113   -3.9442   -1.7402 C.3       1 <0>         0.0598
     21 C17         4.8158   -2.6838   -0.8963 C.3       1 <0>         0.0581
     22 C18         3.4172   -6.0481   -1.8518 C.3       1 <0>         0.0645
     23 C19         4.6945   -6.8831   -1.7415 C.3       1 <0>         0.0561
     24 O1          4.8943   -7.2705   -0.3807 O.3       1 <0>        -0.3413
     25 C20         6.0670   -8.0586   -0.1669 C.3       1 <0>        -0.0020
     26 C21         6.1776   -8.4084    1.2947 C.2       1 <0>         0.4980
     27 O2          5.3307   -8.0190    2.0806 O.co2     1 <0>        -0.6734
     28 O3          7.1140   -9.0809    1.6914 O.co2     1 <0>        -0.7012
     29 H2          7.3167    2.3596   -2.5348 H         1 <0>         0.1186
     30 H3          7.4155    2.0860   -0.0897 H         1 <0>         0.1206
     31 H4          5.7554    0.6766    1.0595 H         1 <0>         0.1199
     32 H5          3.9021   -0.1915   -2.6823 H         1 <0>         0.1279
     33 H6          5.5631    1.2168   -3.8317 H         1 <0>         0.1198
     34 H7          1.9288   -0.3216   -2.0299 H         1 <0>         0.1384
     35 H8         -0.2249    0.8670   -1.9228 H         1 <0>         0.1316
     36 H9          0.4411    1.6975    2.2093 H         1 <0>         0.1322
     37 H10         2.5894    0.4992    2.1028 H         1 <0>         0.1305
     38 H11         2.8436   -3.0927    0.8519 H         1 <0>         0.0488
     39 H12         1.5785   -2.2605   -0.0845 H         1 <0>         0.0791
     40 H13         1.5751   -4.7148   -0.5130 H         1 <0>         0.0800
     41 H14         1.9599   -3.7912   -1.9856 H         1 <0>         0.0361
     42 H15         5.5498   -4.4947   -1.8049 H         1 <0>         0.0809
     43 H16         4.2848   -3.6625   -2.7413 H         1 <0>         0.0361
     44 H17         5.5532   -2.0404   -1.3764 H         1 <0>         0.0800
     45 H18         5.1684   -2.9640    0.0963 H         1 <0>         0.0488
     46 H19         2.5807   -6.6064   -1.4315 H         1 <0>         0.0829
     47 H20         3.2166   -5.8275   -2.9002 H         1 <0>         0.0407
     48 H21         4.6011   -7.7737   -2.3629 H         1 <0>         0.0405
     49 H22         5.5454   -6.2917   -2.0797 H         1 <0>         0.0376
     50 H23         6.0021   -8.9737   -0.7556 H         1 <0>         0.0389
     51 H24         6.9464   -7.4917   -0.4724 H         1 <0>         0.0392
@<TRIPOS>BOND
     1    1    6 ar
     2    1    2 ar
     3    1   29 1
     4    2    3 ar
     5    2   30 1
     6    3    4 ar
     7    3   31 1
     8    4    5 ar
     9    4    7 1
    10    5    6 ar
    11    5   32 1
    12    6   33 1
    13    7    8 1
    14    7    9 1
    15    7   16 1
    16    9   14 ar
    17    9   10 ar
    18   10   11 ar
    19   10   34 1
    20   11   12 ar
    21   11   35 1
    22   12   13 ar
    23   12   15 1
    24   13   14 ar
    25   13   36 1
    26   14   37 1
    27   16   21 1
    28   16   17 1
    29   17   18 1
    30   17   38 1
    31   17   39 1
    32   18   19 1
    33   18   40 1
    34   18   41 1
    35   19   20 1
    36   19   22 1
    37   20   21 1
    38   20   42 1
    39   20   43 1
    40   21   44 1
    41   21   45 1
    42   22   23 1
    43   22   46 1
    44   22   47 1
    45   23   24 1
    46   23   48 1
    47   23   49 1
    48   24   25 1
    49   25   26 1
    50   25   50 1
    51   25   51 1
    52   26   27 2
    53   26   28 1
@<TRIPOS>MOLECULE
ZINC03871698
   40    42     0     0     0
SMALL
USER_CHARGES

@<TRIPOS>ATOM
      1 C1         -0.0167    1.3781    0.0096 C.ar      1 <0>        -0.1118
      2 C2          1.1709    2.0855    0.0021 C.ar      1 <0>        -0.1198
      3 C3          2.3773    1.4107   -0.0130 C.ar      1 <0>        -0.0998
      4 C4          2.3960    0.0285   -0.0201 C.ar      1 <0>        -0.0775
      5 C5          1.2084   -0.6789   -0.0117 C.ar      1 <0>        -0.0999
      6 C6          0.0021   -0.0041    0.0020 C.ar      1 <0>        -0.1200
      7 C7          3.7112   -0.7071   -0.0376 C.3       1 <0>        -0.0755
      8 S1          4.2568   -1.0108    1.6656 S.3       1 <0>        -0.1293
      9 C8          5.8308   -1.8914    1.4717 C.3       1 <0>        -0.0981
     10 C9          6.3997   -2.2085    2.8307 C.2       1 <0>         0.5377
     11 N1          5.7186   -1.8325    3.8509 N.2       1 <0>        -0.8925
     12 S2          6.2576   -2.1257    5.3916 S.o2      1 <0>         2.6225
     13 O1          5.5693   -3.2791    5.8556 O.2       1 <0>        -0.9334
     14 O2          6.2241   -0.8843    6.0823 O.2       1 <0>        -0.9218
     15 C10         7.9557   -2.5752    5.2296 C.ar      1 <0>        -0.7352
     16 C11         8.7868   -2.6089    6.3266 C.ar      1 <0>         0.1286
     17 C12        10.1160   -2.9626    6.1718 C.ar      1 <0>        -0.7110
     18 C13        10.6061   -3.2805    4.9168 C.ar      1 <0>         0.1250
     19 C14         9.7736   -3.2483    3.8143 C.ar      1 <0>        -0.1691
     20 C15         8.4383   -2.8955    3.9650 C.ar      1 <0>         0.2957
     21 N2          7.5826   -2.8701    2.8653 N.pl3     1 <0>        -0.6688
     22 Cl1        12.2745   -3.7212    4.7271 Cl        1 <0>        -0.0051
     23 S3         11.1845   -3.0075    7.5721 S.o2      1 <0>         2.7007
     24 O3         12.3544   -2.2849    7.2137 O.2       1 <0>        -0.9383
     25 O4         10.3913   -2.6623    8.6995 O.2       1 <0>        -0.9470
     26 N3         11.6478   -4.5832    7.7841 N.pl3     1 <0>        -1.2419
     27 H1         -0.9591    1.9053    0.0259 H         1 <0>         0.1240
     28 H2          1.1563    3.1654    0.0076 H         1 <0>         0.1251
     29 H3          3.3051    1.9634   -0.0196 H         1 <0>         0.1247
     30 H4          1.2231   -1.7588   -0.0176 H         1 <0>         0.1247
     31 H5         -0.9258   -0.5567    0.0082 H         1 <0>         0.1251
     32 H6          3.5884   -1.6586   -0.5549 H         1 <0>         0.0921
     33 H7          4.4573   -0.1052   -0.5563 H         1 <0>         0.0920
     34 H8          5.6635   -2.8181    0.9227 H         1 <0>         0.1282
     35 H9          6.5324   -1.2646    0.9213 H         1 <0>         0.1299
     36 H10         8.4029   -2.3599    7.3049 H         1 <0>         0.1731
     37 H11        10.1605   -3.4966    2.8370 H         1 <0>         0.1650
     38 H12        12.5133   -4.7862    8.1721 H         1 <0>         0.4265
     39 H13        11.0536   -5.3031    7.5203 H         1 <0>         0.4189
     40 H14         7.8524   -3.3547    2.0695 H         1 <0>         0.4367
@<TRIPOS>BOND
     1    1    6 ar
     2    1    2 ar
     3    1   27 1
     4    2    3 ar
     5    2   28 1
     6    3    4 ar
     7    3   29 1
     8    4    5 ar
     9    4    7 1
    10    5    6 ar
    11    5   30 1
    12    6   31 1
    13    7    8 1
    14    7   32 1
    15    7   33 1
    16    8    9 1
    17    9   10 1
    18    9   34 1
    19    9   35 1
    20   10   21 1
    21   10   11 2
    22   11   12 1
    23   12   13 2
    24   12   14 2
    25   12   15 1
    26   15   20 ar
    27   15   16 ar
    28   16   17 ar
    29   16   36 1
    30   17   18 ar
    31   17   23 1
    32   18   19 ar
    33   18   22 1
    34   19   20 ar
    35   19   37 1
    36   20   21 1
    37   21   40 1
    38   23   24 2
    39   23   25 2
    40   23   26 1
    41   26   38 1
    42   26   39 1
@<TRIPOS>MOLECULE
ZINC19364230
   52    54     0     0     0
SMALL
USER_CHARGES

@<TRIPOS>ATOM
      1 C1          0.2441    2.1500    1.0851 C.ar      1 <0>        -0.0940
      2 C2          1.4939    2.7339    0.9954 C.ar      1 <0>        -0.1039
      3 C3          2.6102    1.9476    0.7797 C.ar      1 <0>        -0.0846
      4 C4          2.4768    0.5775    0.6541 C.ar      1 <0>        -0.1285
      5 C5          1.2272   -0.0065    0.7448 C.ar      1 <0>        -0.1206
      6 C6          0.1107    0.7799    0.9591 C.ar      1 <0>        -0.1037
      7 C7          3.6937   -0.2796    0.4180 C.3       1 <0>         0.1307
      8 H1          4.5870    0.2661    0.7221 H         1 <0>         0.1535
      9 C8          3.7893   -0.6237   -1.0461 C.ar      1 <0>        -0.1238
     10 C9          3.0093   -1.6378   -1.5698 C.ar      1 <0>        -0.1073
     11 C10         3.0966   -1.9539   -2.9125 C.ar      1 <0>        -0.0965
     12 C11         3.9647   -1.2552   -3.7324 C.ar      1 <0>        -0.0162
     13 C12         4.7451   -0.2404   -3.2076 C.ar      1 <0>        -0.0966
     14 C13         4.6528    0.0786   -1.8660 C.ar      1 <0>        -0.0713
     15 Cl1         4.0752   -1.6520   -5.4188 Cl        1 <0>        -0.0441
     16 N1          3.5828   -1.5149    1.2052 N.4       1 <0>        -0.3822
     17 C14         4.7682   -2.3508    0.9734 C.3       1 <0>        -0.0048
     18 C15         4.6444   -3.6462    1.7786 C.3       1 <0>         0.0283
     19 N2          4.5238   -3.3221    3.2071 N.3       1 <0>        -0.5233
     20 C16         3.3552   -2.4648    3.4511 C.3       1 <0>         0.0328
     21 C17         3.4897   -1.1792    2.6321 C.3       1 <0>        -0.0043
     22 C18         4.4596   -4.5437    4.0205 C.3       1 <0>         0.0631
     23 C19         5.8560   -5.1599    4.1264 C.3       1 <0>         0.0542
     24 O1          6.7168   -4.2694    4.8391 O.3       1 <0>        -0.3446
     25 C20         8.0526   -4.7525    4.9947 C.3       1 <0>        -0.0026
     26 C21         8.8678   -3.7391    5.7561 C.2       1 <0>         0.4976
     27 O2          8.3525   -2.6996    6.1308 O.co2     1 <0>        -0.6771
     28 O3         10.0425   -3.9589    5.9975 O.co2     1 <0>        -0.6919
     29 H2         -0.6275    2.7638    1.2581 H         1 <0>         0.1344
     30 H3          1.5981    3.8043    1.0935 H         1 <0>         0.1367
     31 H4          3.5866    2.4039    0.7089 H         1 <0>         0.1349
     32 H5          1.1229   -1.0769    0.6464 H         1 <0>         0.1143
     33 H6         -0.8657    0.3237    1.0295 H         1 <0>         0.1340
     34 H7          2.3319   -2.1834   -0.9296 H         1 <0>         0.1243
     35 H8          2.4874   -2.7464   -3.3215 H         1 <0>         0.1450
     36 H9          5.4232    0.3052   -3.8471 H         1 <0>         0.1477
     37 H10         5.2584    0.8739   -1.4572 H         1 <0>         0.1449
     38 H11         4.8434   -2.5884   -0.0877 H         1 <0>         0.1324
     39 H12         5.6609   -1.8108    1.2890 H         1 <0>         0.1444
     40 H13         3.7592   -4.1931    1.4538 H         1 <0>         0.0539
     41 H14         5.5307   -4.2601    1.6185 H         1 <0>         0.1241
     42 H15         2.4488   -2.9923    3.1538 H         1 <0>         0.0527
     43 H16         3.3011   -2.2168    4.5111 H         1 <0>         0.1270
     44 H17         4.3889   -0.6452    2.9391 H         1 <0>         0.1444
     45 H18         2.6171   -0.5481    2.8006 H         1 <0>         0.1340
     46 H19         4.0944   -4.2975    5.0176 H         1 <0>         0.0952
     47 H20         3.7822   -5.2573    3.5514 H         1 <0>         0.0552
     48 H21         5.7947   -6.1094    4.6584 H         1 <0>         0.0501
     49 H22         6.2554   -5.3288    3.1264 H         1 <0>         0.0374
     50 H23         8.0370   -5.6934    5.5446 H         1 <0>         0.0436
     51 H24         8.4977   -4.9129    4.0127 H         1 <0>         0.0414
     52 H25         2.7557   -2.0196    0.9239 H         1 <0>         0.4098
@<TRIPOS>BOND
     1    1    6 ar
     2    1    2 ar
     3    1   29 1
     4    2    3 ar
     5    2   30 1
     6    3    4 ar
     7    3   31 1
     8    4    5 ar
     9    4    7 1
    10    5    6 ar
    11    5   32 1
    12    6   33 1
    13    7    8 1
    14    7    9 1
    15    7   16 1
    16    9   14 ar
    17    9   10 ar
    18   10   11 ar
    19   10   34 1
    20   11   12 ar
    21   11   35 1
    22   12   13 ar
    23   12   15 1
    24   13   14 ar
    25   13   36 1
    26   14   37 1
    27   16   21 1
    28   16   17 1
    29   16   52 1
    30   17   18 1
    31   17   38 1
    32   17   39 1
    33   18   19 1
    34   18   40 1
    35   18   41 1
    36   19   20 1
    37   19   22 1
    38   20   21 1
    39   20   42 1
    40   20   43 1
    41   21   44 1
    42   21   45 1
    43   22   23 1
    44   22   46 1
    45   22   47 1
    46   23   24 1
    47   23   48 1
    48   23   49 1
    49   24   25 1
    50   25   26 1
    51   25   50 1
    52   25   51 1
    53   26   27 2
    54   26   28 1
@<TRIPOS>MOLECULE
ZINC19364230
   51    53     0     0     0
SMALL
USER_CHARGES

@<TRIPOS>ATOM
      1 C1          7.2854    1.9516    1.2585 C.ar      1 <0>        -0.1202
      2 C2          7.2598    1.6346   -0.0868 C.ar      1 <0>        -0.1212
      3 C3          6.3151    0.7488   -0.5704 C.ar      1 <0>        -0.1114
      4 C4          5.3962    0.1798    0.2914 C.ar      1 <0>        -0.0728
      5 C5          5.4223    0.4961    1.6368 C.ar      1 <0>        -0.0883
      6 C6          6.3662    1.3829    2.1202 C.ar      1 <0>        -0.1250
      7 C7          4.3657   -0.7851   -0.2359 C.3       1 <0>         0.1624
      8 H1          4.6445   -1.1010   -1.2412 H         1 <0>         0.0613
      9 C8          3.0194   -0.1092   -0.2771 C.ar      1 <0>        -0.0658
     10 C9          2.3144    0.0986    0.8938 C.ar      1 <0>        -0.0773
     11 C10         1.0796    0.7184    0.8566 C.ar      1 <0>        -0.1145
     12 C11         0.5491    1.1310   -0.3527 C.ar      1 <0>        -0.0345
     13 C12         1.2551    0.9228   -1.5242 C.ar      1 <0>        -0.1106
     14 C13         2.4923    0.3079   -1.4851 C.ar      1 <0>        -0.0995
     15 Cl1        -1.0020    1.9091   -0.4002 Cl        1 <0>        -0.0762
     16 N1          4.2976   -1.9587    0.6450 N.3       1 <0>        -0.5274
     17 C14         3.2491   -2.8887    0.2032 C.3       1 <0>         0.0562
     18 C15         3.1570   -4.0554    1.1895 C.3       1 <0>         0.0610
     19 N2          4.4591   -4.7323    1.2664 N.3       1 <0>        -0.5251
     20 C16         5.5077   -3.8023    1.7083 C.3       1 <0>         0.0638
     21 C17         5.5997   -2.6356    0.7219 C.3       1 <0>         0.0577
     22 C18         4.3911   -5.9059    2.1473 C.3       1 <0>         0.0640
     23 C19         3.6793   -7.0487    1.4204 C.3       1 <0>         0.0590
     24 O1          4.4519   -7.4458    0.2857 O.3       1 <0>        -0.3414
     25 C20         3.8724   -8.5132   -0.4672 C.3       1 <0>        -0.0018
     26 C21         4.7661   -8.8481   -1.6336 C.2       1 <0>         0.4982
     27 O2          5.8030   -8.2299   -1.8042 O.co2     1 <0>        -0.6738
     28 O3          4.4521   -9.7371   -2.4065 O.co2     1 <0>        -0.7014
     29 H2          8.0263    2.6401    1.6370 H         1 <0>         0.1185
     30 H3          7.9778    2.0792   -0.7601 H         1 <0>         0.1205
     31 H4          6.2947    0.5017   -1.6215 H         1 <0>         0.1200
     32 H5          4.7042    0.0517    2.3101 H         1 <0>         0.1276
     33 H6          6.3863    1.6303    3.1713 H         1 <0>         0.1197
     34 H7          2.7285   -0.2239    1.8377 H         1 <0>         0.1383
     35 H8          0.5288    0.8803    1.7714 H         1 <0>         0.1316
     36 H9          0.8413    1.2444   -2.4685 H         1 <0>         0.1324
     37 H10         3.0456    0.1496   -2.3990 H         1 <0>         0.1306
     38 H11         2.2925   -2.3674    0.1662 H         1 <0>         0.0788
     39 H12         3.4947   -3.2693   -0.7883 H         1 <0>         0.0486
     40 H13         2.8847   -3.6777    2.1751 H         1 <0>         0.0365
     41 H14         2.3998   -4.7612    0.8482 H         1 <0>         0.0783
     42 H15         5.2620   -3.4218    2.6997 H         1 <0>         0.0357
     43 H16         6.4642   -4.3236    1.7452 H         1 <0>         0.0811
     44 H17         5.8720   -3.0133   -0.2636 H         1 <0>         0.0492
     45 H18         6.3569   -1.9298    1.0632 H         1 <0>         0.0800
     46 H19         5.4005   -6.2184    2.4149 H         1 <0>         0.0809
     47 H20         3.8383   -5.6502    3.0513 H         1 <0>         0.0431
     48 H21         3.5664   -7.8954    2.0974 H         1 <0>         0.0396
     49 H22         2.6960   -6.7131    1.0910 H         1 <0>         0.0361
     50 H23         3.7635   -9.3903    0.1706 H         1 <0>         0.0385
     51 H24         2.8931   -8.2080   -0.8358 H         1 <0>         0.0391
@<TRIPOS>BOND
     1    1    6 ar
     2    1    2 ar
     3    1   29 1
     4    2    3 ar
     5    2   30 1
     6    3    4 ar
     7    3   31 1
     8    4    5 ar
     9    4    7 1
    10    5    6 ar
    11    5   32 1
    12    6   33 1
    13    7    8 1
    14    7    9 1
    15    7   16 1
    16    9   14 ar
    17    9   10 ar
    18   10   11 ar
    19   10   34 1
    20   11   12 ar
    21   11   35 1
    22   12   13 ar
    23   12   15 1
    24   13   14 ar
    25   13   36 1
    26   14   37 1
    27   16   21 1
    28   16   17 1
    29   17   18 1
    30   17   38 1
    31   17   39 1
    32   18   19 1
    33   18   40 1
    34   18   41 1
    35   19   20 1
    36   19   22 1
    37   20   21 1
    38   20   42 1
    39   20   43 1
    40   21   44 1
    41   21   45 1
    42   22   23 1
    43   22   46 1
    44   22   47 1
    45   23   24 1
    46   23   48 1
    47   23   49 1
    48   24   25 1
    49   25   26 1
    50   25   50 1
    51   25   51 1
    52   26   27 2
    53   26   28 1
@<TRIPOS>MOLECULE
ZINC03842753
   30    31     0     0     0
SMALL
USER_CHARGES

@<TRIPOS>ATOM
      1 C1         -0.0164    1.3574    0.0095 C.2       1 <0>         0.2065
      2 C2          1.1570    2.0359    0.0019 C.2       1 <0>        -0.3502
      3 C3          2.3637    1.3118   -0.0135 C.2       1 <0>         0.4894
      4 O1          3.5473    1.9645   -0.0208 O.3       1 <0>        -0.6509
      5 N1          2.3338   -0.0121   -0.0203 N.2       1 <0>        -0.6394
      6 C4          1.1731   -0.6670   -0.0127 C.2       1 <0>         0.6471
      7 O2          1.1723   -1.8868   -0.0193 O.2       1 <0>        -0.5717
      8 N2          0.0021   -0.0041    0.0020 N.am      1 <0>        -0.5361
      9 C5         -1.2585   -0.7505    0.0100 C.3       1 <0>         0.2946
     10 H1         -2.1015   -0.0690    0.1233 H         1 <0>         0.0977
     11 C6         -1.4038   -1.5745   -1.2885 C.3       1 <0>        -0.1883
     12 C7         -2.0765   -2.8868   -0.8272 C.3       1 <0>         0.0852
     13 H2         -1.4304   -3.7401   -1.0332 H         1 <0>         0.0814
     14 C8         -2.2581   -2.7003    0.6955 C.3       1 <0>         0.0917
     15 H3         -3.2554   -2.3192    0.9149 H         1 <0>         0.0865
     16 O3         -1.2567   -1.7289    1.0724 O.3       1 <0>        -0.3386
     17 C9         -2.0222   -4.0238    1.4260 C.3       1 <0>         0.0857
     18 O4         -2.3079   -3.8580    2.8163 O.3       1 <0>        -0.5662
     19 O5         -3.3426   -3.0527   -1.4686 O.3       1 <0>        -0.5614
     20 C10         1.1692    3.5428    0.0094 C.3       1 <0>         0.5372
     21 F1          1.3002    4.0016    1.3246 F         1 <0>        -0.1839
     22 F2          2.2463    4.0042   -0.7549 F         1 <0>        -0.1603
     23 F3         -0.0276    4.0216   -0.5344 F         1 <0>        -0.1973
     24 H4         -0.9554    1.8907    0.0258 H         1 <0>         0.1614
     25 H5         -2.0380   -1.0512   -2.0040 H         1 <0>         0.0896
     26 H6         -0.4251   -1.7792   -1.7225 H         1 <0>         0.1016
     27 H7         -2.6759   -4.7902    1.0096 H         1 <0>         0.0623
     28 H8         -0.9825   -4.3268    1.3024 H         1 <0>         0.0630
     29 H9         -2.1796   -4.6591    3.3425 H         1 <0>         0.3796
     30 H10        -3.2903   -3.1150   -2.4322 H         1 <0>         0.3836
@<TRIPOS>BOND
     1    1    8 1
     2    1    2 2
     3    1   24 1
     4    2    3 1
     5    2   20 1
     6    3    4 1
     7    3    5 2
     8    5    6 1
     9    6    7 2
    10    6    8 am
    11    8    9 1
    12    9   10 1
    13    9   16 1
    14    9   11 1
    15   11   12 1
    16   11   25 1
    17   11   26 1
    18   12   13 1
    19   12   14 1
    20   12   19 1
    21   14   15 1
    22   14   16 1
    23   14   17 1
    24   17   18 1
    25   17   27 1
    26   17   28 1
    27   18   29 1
    28   19   30 1
    29   20   21 1
    30   20   22 1
    31   20   23 1
@<TRIPOS>MOLECULE
ZINC17920432
   33    33     0     0     0
SMALL
USER_CHARGES

@<TRIPOS>ATOM
      1 C1          1.7915   -3.0453   -1.8918 C.3       1 <0>        -0.1494
      2 C2          0.9174   -2.3362   -0.8555 C.3       1 <0>        -0.1243
      3 C3         -0.5385   -2.7726   -1.0319 C.3       1 <0>        -0.1278
      4 C4         -1.4126   -2.0635    0.0045 C.3       1 <0>        -0.0645
      5 H1         -1.0195   -2.2545    1.0030 H         1 <0>         0.0940
      6 C5         -1.4056   -0.5578   -0.2670 C.3       1 <0>        -0.1550
      7 C6         -2.8453   -2.5920   -0.0894 C.3       1 <0>        -0.1346
      8 C7         -3.6471   -1.9866    1.0465 C.2       1 <0>         0.4919
      9 O1         -3.2800   -2.1660    2.3266 O.3       1 <0>        -0.5865
     10 N1         -4.7067   -1.2841    0.7408 N.2       1 <0>        -0.6083
     11 C8         -5.1010   -1.0846   -0.5207 C.2       1 <0>         0.5594
     12 N2         -4.4756   -1.5669   -1.6019 N.am      1 <0>        -0.6584
     13 C9         -3.3584   -2.3196   -1.4915 C.2       1 <0>         0.5406
     14 O2         -2.7907   -2.7571   -2.4694 O.2       1 <0>        -0.4960
     15 S1         -6.5085   -0.1431   -0.7724 S.2       1 <0>        -0.6727
     16 C10        -2.8042   -4.1082    0.1119 C.3       1 <0>        -0.0994
     17 C11        -4.2235   -4.6729    0.0243 C.3       1 <0>        -0.1596
     18 H2          2.8286   -2.7345   -1.7662 H         1 <0>         0.0492
     19 H3          1.7162   -4.1239   -1.7537 H         1 <0>         0.0519
     20 H4          1.4523   -2.7828   -2.8939 H         1 <0>         0.0526
     21 H5          1.2565   -2.5988    0.1466 H         1 <0>         0.0589
     22 H6          0.9926   -1.2576   -0.9936 H         1 <0>         0.0606
     23 H7         -0.8776   -2.5101   -2.0340 H         1 <0>         0.0853
     24 H8         -0.6137   -3.8512   -0.8938 H         1 <0>         0.0670
     25 H9         -1.7003   -0.3735   -1.3001 H         1 <0>         0.0490
     26 H10        -2.1080   -0.0642    0.4047 H         1 <0>         0.0584
     27 H11        -0.4036   -0.1629   -0.0990 H         1 <0>         0.0652
     28 H12        -4.8319   -1.3723   -2.4829 H         1 <0>         0.4154
     29 H13        -2.1846   -4.5608   -0.6622 H         1 <0>         0.0798
     30 H14        -2.3835   -4.3333    1.0919 H         1 <0>         0.0866
     31 H15        -4.1942   -5.7530    0.1678 H         1 <0>         0.0629
     32 H16        -4.8431   -4.2202    0.7984 H         1 <0>         0.0609
     33 H17        -4.6442   -4.4478   -0.9557 H         1 <0>         0.0469
@<TRIPOS>BOND
     1    1    2 1
     2    1   18 1
     3    1   19 1
     4    1   20 1
     5    2    3 1
     6    2   21 1
     7    2   22 1
     8    3    4 1
     9    3   23 1
    10    3   24 1
    11    4    5 1
    12    4    6 1
    13    4    7 1
    14    6   25 1
    15    6   26 1
    16    6   27 1
    17    7    8 1
    18    7   16 1
    19    7   13 1
    20    8    9 1
    21    8   10 2
    22   10   11 1
    23   11   12 1
    24   11   15 2
    25   12   13 am
    26   12   28 1
    27   13   14 2
    28   16   17 1
    29   16   29 1
    30   16   30 1
    31   17   31 1
    32   17   32 1
    33   17   33 1
@<TRIPOS>MOLECULE
ZINC21982951
   60    63     0     0     0
SMALL
USER_CHARGES

@<TRIPOS>ATOM
      1 C1          3.2739    6.6585    1.8418 C.3       1 <0>        -0.1168
      2 C2          2.5810    7.9910    1.9663 C.ar      1 <0>        -0.0823
      3 C3          2.8983    9.0189    1.0995 C.ar      1 <0>        -0.1038
      4 C4          2.2635   10.2419    1.2126 C.ar      1 <0>        -0.1008
      5 C5          1.3088   10.4411    2.1933 C.ar      1 <0>        -0.1049
      6 C6          0.9869    9.4175    3.0639 C.ar      1 <0>        -0.0226
      7 C7          1.6192    8.1849    2.9486 C.ar      1 <0>         0.1373
      8 N1          1.2913    7.1440    3.8238 N.am      1 <0>        -0.6678
      9 C8          1.3128    7.3511    5.1554 C.2       1 <0>         0.6036
     10 O1          1.5184    8.4680    5.5945 O.2       1 <0>        -0.4759
     11 C9          1.0891    6.2346    6.0728 C.2       1 <0>        -0.2694
     12 C10         1.0619    6.2190    7.4604 C.2       1 <0>         0.1522
     13 N2          0.8357    5.0596    8.0247 N.2       1 <0>        -0.5060
     14 C11         0.6446    3.9678    7.3056 C.2       1 <0>         0.2464
     15 S1          0.7674    4.5141    5.7185 S.3       1 <0>         0.2029
     16 N3          0.3973    2.6842    7.7505 N.pl3     1 <0>        -0.5650
     17 C12         0.2197    2.4414    9.1063 C.ar      1 <0>         0.4999
     18 C13        -0.1342    1.1736    9.5555 C.ar      1 <0>        -0.3181
     19 C14        -0.3003    0.9817   10.9244 C.ar      1 <0>         0.4940
     20 N4         -0.1157    2.0114   11.7481 N.ar      1 <0>        -0.5712
     21 C15         0.2193    3.1978   11.2829 C.ar      1 <0>         0.4509
     22 N5          0.3911    3.4178    9.9956 N.ar      1 <0>        -0.4879
     23 C16         0.4179    4.3344   12.2523 C.3       1 <0>        -0.1253
     24 N6         -0.6531   -0.2629   11.4224 N.pl3     1 <0>        -0.5744
     25 C17        -0.9639   -0.4449   12.8484 C.3       1 <0>         0.1013
     26 C18        -2.3114   -1.1652   12.9649 C.3       1 <0>         0.0387
     27 N7         -2.2712   -2.4031   12.1749 N.3       1 <0>        -0.5277
     28 C19        -2.0835   -2.1176   10.7462 C.3       1 <0>         0.0305
     29 C20        -0.7325   -1.4351   10.5377 C.3       1 <0>         0.1149
     30 C21        -3.4796   -3.2085   12.3965 C.3       1 <0>         0.0543
     31 C22        -3.2958   -4.5889   11.7629 C.3       1 <0>         0.0774
     32 O2         -2.2472   -5.2869   12.4378 O.3       1 <0>        -0.5615
     33 Cl1        -0.2110    9.6681    4.2952 Cl        1 <0>        -0.0453
     34 H1          2.7121    6.0191    1.1609 H         1 <0>         0.0767
     35 H2          4.2810    6.8077    1.4524 H         1 <0>         0.0779
     36 H3          3.3298    6.1850    2.8220 H         1 <0>         0.0648
     37 H4          3.6435    8.8670    0.3327 H         1 <0>         0.1365
     38 H5          2.5139   11.0437    0.5337 H         1 <0>         0.1383
     39 H6          0.8148   11.3976    2.2790 H         1 <0>         0.1396
     40 H7          1.0484    6.2731    3.4723 H         1 <0>         0.4083
     41 H8          1.2191    7.1147    8.0430 H         1 <0>         0.1979
     42 H9          0.3477    1.9521    7.1161 H         1 <0>         0.4525
     43 H10        -0.2767    0.3593    8.8606 H         1 <0>         0.1835
     44 H11         1.4596    4.3615   12.5720 H         1 <0>         0.1250
     45 H12         0.1626    5.2758   11.7656 H         1 <0>         0.1301
     46 H13        -0.2249    4.1881   13.1203 H         1 <0>         0.1049
     47 H14        -0.1857   -1.0458   13.3190 H         1 <0>         0.1119
     48 H15        -1.0251    0.5276   13.3369 H         1 <0>         0.0843
     49 H16        -2.5057   -1.4068   14.0099 H         1 <0>         0.1076
     50 H17        -3.1034   -0.5184   12.5874 H         1 <0>         0.0465
     51 H18        -2.1124   -3.0499   10.1822 H         1 <0>         0.1076
     52 H19        -2.8786   -1.4576   10.3996 H         1 <0>         0.0467
     53 H20        -0.6409   -1.1170    9.4992 H         1 <0>         0.1034
     54 H21         0.0684   -2.1330   10.7819 H         1 <0>         0.1075
     55 H22        -3.6507   -3.3200   13.4672 H         1 <0>         0.0925
     56 H23        -4.3362   -2.7111   11.9416 H         1 <0>         0.0553
     57 H24        -4.2233   -5.1548   11.8494 H         1 <0>         0.0565
     58 H25        -3.0370   -4.4741   10.7103 H         1 <0>         0.0456
     59 H26        -2.0752   -6.1719   12.0881 H         1 <0>         0.3821
     60 H27        -0.2297    1.8867   12.7033 H         1 <0>         0.4392
@<TRIPOS>BOND
     1    1    2 1
     2    1   34 1
     3    1   35 1
     4    1   36 1
     5    2    7 ar
     6    2    3 ar
     7    3    4 ar
     8    3   37 1
     9    4    5 ar
    10    4   38 1
    11    5    6 ar
    12    5   39 1
    13    6    7 ar
    14    6   33 1
    15    7    8 1
    16    8    9 am
    17    8   40 1
    18    9   10 2
    19    9   11 1
    20   11   15 1
    21   11   12 2
    22   12   13 1
    23   12   41 1
    24   13   14 2
    25   14   15 1
    26   14   16 1
    27   16   17 1
    28   16   42 1
    29   17   18 ar
    30   17   22 ar
    31   18   43 1
    32   18   19 ar
    33   19   24 1
    34   19   20 ar
    35   20   60 1
    36   20   21 ar
    37   21   23 1
    38   21   22 ar
    39   23   44 1
    40   23   45 1
    41   23   46 1
    42   24   29 1
    43   24   25 1
    44   25   26 1
    45   25   47 1
    46   25   48 1
    47   26   27 1
    48   26   49 1
    49   26   50 1
    50   27   28 1
    51   27   30 1
    52   28   29 1
    53   28   51 1
    54   28   52 1
    55   29   53 1
    56   29   54 1
    57   30   31 1
    58   30   55 1
    59   30   56 1
    60   31   32 1
    61   31   57 1
    62   31   58 1
    63   32   59 1
@<TRIPOS>MOLECULE
ZINC21982951
   59    62     0     0     0
SMALL
USER_CHARGES

@<TRIPOS>ATOM
      1 C1          3.4106    6.6420    1.8847 C.3       1 <0>        -0.1165
      2 C2          2.6976    7.9659    1.9845 C.ar      1 <0>        -0.0852
      3 C3          3.0204    8.9921    1.1176 C.ar      1 <0>        -0.1055
      4 C4          2.3672   10.2073    1.2080 C.ar      1 <0>        -0.1070
      5 C5          1.3885   10.4004    2.1660 C.ar      1 <0>        -0.1064
      6 C6          1.0609    9.3785    3.0365 C.ar      1 <0>        -0.0243
      7 C7          1.7118    8.1536    2.9438 C.ar      1 <0>         0.1460
      8 N1          1.3783    7.1144    3.8189 N.am      1 <0>        -0.6734
      9 C8          1.3676    7.3308    5.1492 C.2       1 <0>         0.6131
     10 O1          1.5489    8.4533    5.5848 O.2       1 <0>        -0.4899
     11 C9          1.1384    6.2176    6.0693 C.2       1 <0>        -0.3092
     12 C10         1.0807    6.2111    7.4561 C.2       1 <0>         0.1722
     13 N2          0.8573    5.0526    8.0233 N.2       1 <0>        -0.5180
     14 C11         0.6966    3.9535    7.3079 C.2       1 <0>         0.3121
     15 S1          0.8472    4.4907    5.7202 S.3       1 <0>         0.1340
     16 N3          0.4564    2.6698    7.7563 N.pl3     1 <0>        -0.5904
     17 C12         0.2490    2.4343    9.1091 C.ar      1 <0>         0.4412
     18 C13        -0.1036    1.1661    9.5586 C.ar      1 <0>        -0.3412
     19 C14        -0.3003    0.9817   10.9244 C.ar      1 <0>         0.4686
     20 N4         -0.1450    2.0186   11.7452 N.ar      1 <0>        -0.5923
     21 C15         0.1898    3.2050   11.2799 C.ar      1 <0>         0.3946
     22 N5          0.3901    3.4182    9.9956 N.ar      1 <0>        -0.5459
     23 C16         0.3546    4.3498   12.2460 C.3       1 <0>        -0.0834
     24 N6         -0.6531   -0.2629   11.4224 N.pl3     1 <0>        -0.5966
     25 C17        -1.0693   -0.4249   12.8237 C.3       1 <0>         0.1300
     26 C18        -2.3993   -1.1856   12.8517 C.3       1 <0>         0.0401
     27 N7         -2.2595   -2.4378   12.0965 N.3       1 <0>        -0.5276
     28 C19        -1.9688   -2.1765   10.6804 C.3       1 <0>         0.0363
     29 C20        -0.6270   -1.4554   10.5619 C.3       1 <0>         0.1269
     30 C21        -3.4565   -3.2768   12.2420 C.3       1 <0>         0.0537
     31 C22        -3.1814   -4.6636   11.6572 C.3       1 <0>         0.0792
     32 O2         -2.1684   -5.3132   12.4279 O.3       1 <0>        -0.5589
     33 Cl1        -0.1672    9.6214    4.2392 Cl        1 <0>        -0.0433
     34 H1          2.8725    5.9906    1.1961 H         1 <0>         0.0754
     35 H2          4.4240    6.8020    1.5166 H         1 <0>         0.0754
     36 H3          3.4510    6.1760    2.8692 H         1 <0>         0.0676
     37 H4          3.7844    8.8450    0.3685 H         1 <0>         0.1337
     38 H5          2.6220   11.0077    0.5292 H         1 <0>         0.1350
     39 H6          0.8801   11.3508    2.2339 H         1 <0>         0.1371
     40 H7          1.1547    6.2381    3.4683 H         1 <0>         0.4085
     41 H8          1.2132    7.1127    8.0357 H         1 <0>         0.1884
     42 H9          0.4325    1.9325    7.1264 H         1 <0>         0.4387
     43 H10        -0.2220    0.3459    8.8660 H         1 <0>         0.1413
     44 H11         1.3882    4.3890   12.5900 H         1 <0>         0.0870
     45 H12         0.1021    5.2855   11.7470 H         1 <0>         0.0890
     46 H13        -0.3072    4.2031   13.0995 H         1 <0>         0.0846
     47 H14        -0.3126   -0.9904   13.3674 H         1 <0>         0.0744
     48 H15        -1.1984    0.5551   13.2831 H         1 <0>         0.1008
     49 H16        -2.6676   -1.4113   13.8837 H         1 <0>         0.0903
     50 H17        -3.1785   -0.5727   12.3986 H         1 <0>         0.0372
     51 H18        -1.9249   -3.1208   10.1378 H         1 <0>         0.0905
     52 H19        -2.7540   -1.5497   10.2576 H         1 <0>         0.0380
     53 H20        -0.4638   -1.1563    9.5265 H         1 <0>         0.0877
     54 H21         0.1731   -2.1219   10.8840 H         1 <0>         0.0802
     55 H22        -3.7077   -3.3713   13.2985 H         1 <0>         0.0861
     56 H23        -4.2894   -2.8169   11.7102 H         1 <0>         0.0487
     57 H24        -4.0952   -5.2572   11.6843 H         1 <0>         0.0498
     58 H25        -2.8443   -4.5626   10.6256 H         1 <0>         0.0451
     59 H26        -1.9426   -6.1994   12.1134 H         1 <0>         0.3762
@<TRIPOS>BOND
     1    1    2 1
     2    1   34 1
     3    1   35 1
     4    1   36 1
     5    2    7 ar
     6    2    3 ar
     7    3    4 ar
     8    3   37 1
     9    4    5 ar
    10    4   38 1
    11    5    6 ar
    12    5   39 1
    13    6    7 ar
    14    6   33 1
    15    7    8 1
    16    8    9 am
    17    8   40 1
    18    9   10 2
    19    9   11 1
    20   11   15 1
    21   11   12 2
    22   12   13 1
    23   12   41 1
    24   13   14 2
    25   14   15 1
    26   14   16 1
    27   16   17 1
    28   16   42 1
    29   17   18 ar
    30   17   22 ar
    31   18   43 1
    32   18   19 ar
    33   19   24 1
    34   19   20 ar
    35   20   21 ar
    36   21   23 1
    37   21   22 ar
    38   23   44 1
    39   23   45 1
    40   23   46 1
    41   24   29 1
    42   24   25 1
    43   25   26 1
    44   25   47 1
    45   25   48 1
    46   26   27 1
    47   26   49 1
    48   26   50 1
    49   27   28 1
    50   27   30 1
    51   28   29 1
    52   28   51 1
    53   28   52 1
    54   29   53 1
    55   29   54 1
    56   30   31 1
    57   30   55 1
    58   30   56 1
    59   31   32 1
    60   31   57 1
    61   31   58 1
    62   32   59 1
@<TRIPOS>MOLECULE
ZINC21982951
   61    64     0     0     0
SMALL
USER_CHARGES

@<TRIPOS>ATOM
      1 C1          3.2770    6.6581    1.8427 C.3       1 <0>        -0.1166
      2 C2          2.5837    7.9904    1.9667 C.ar      1 <0>        -0.0814
      3 C3          2.9012    9.0183    1.0999 C.ar      1 <0>        -0.1028
      4 C4          2.2660   10.2411    1.2125 C.ar      1 <0>        -0.0975
      5 C5          1.3108   10.4402    2.1928 C.ar      1 <0>        -0.1039
      6 C6          0.9888    9.4167    3.0634 C.ar      1 <0>        -0.0218
      7 C7          1.6215    8.1842    2.9485 C.ar      1 <0>         0.1327
      8 N1          1.2933    7.1433    3.8237 N.am      1 <0>        -0.6648
      9 C8          1.3141    7.3507    5.1552 C.2       1 <0>         0.5983
     10 O1          1.5193    8.4677    5.5943 O.2       1 <0>        -0.4690
     11 C9          1.0903    6.2342    6.0727 C.2       1 <0>        -0.2500
     12 C10         1.0624    6.2188    7.4604 C.2       1 <0>         0.1439
     13 N2          0.8362    5.0594    8.0246 N.2       1 <0>        -0.4984
     14 C11         0.6458    3.9675    7.3056 C.2       1 <0>         0.2172
     15 S1          0.7692    4.5136    5.7185 S.3       1 <0>         0.2242
     16 N3          0.3986    2.6839    7.7506 N.pl3     1 <0>        -0.5513
     17 C12         0.2203    2.4413    9.1063 C.ar      1 <0>         0.5098
     18 C13        -0.1335    1.1734    9.5556 C.ar      1 <0>        -0.3097
     19 C14        -0.3003    0.9817   10.9244 C.ar      1 <0>         0.4927
     20 N4         -0.1163    2.0116   11.7481 N.ar      1 <0>        -0.5695
     21 C15         0.2187    3.1980   11.2828 C.ar      1 <0>         0.4589
     22 N5          0.3911    3.4178    9.9956 N.ar      1 <0>        -0.4762
     23 C16         0.4165    4.3348   12.2521 C.3       1 <0>        -0.1303
     24 N6         -0.6531   -0.2629   11.4224 N.pl3     1 <0>        -0.6123
     25 C17        -0.9643   -0.4465   12.8484 C.3       1 <0>         0.0782
     26 C18        -2.3027   -1.1838   12.9625 C.3       1 <0>        -0.0204
     27 N7         -2.2406   -2.4311   12.1903 N.4       1 <0>        -0.3852
     28 C19        -2.0770   -2.1279   10.7629 C.3       1 <0>        -0.0304
     29 C20        -0.7330   -1.4363   10.5388 C.3       1 <0>         0.0932
     30 C21        -3.4827   -3.1900   12.3886 C.3       1 <0>        -0.0061
     31 C22        -3.3702   -4.5448   11.6865 C.3       1 <0>         0.0434
     32 O2         -2.3479   -5.3224   12.3128 O.3       1 <0>        -0.5819
     33 Cl1        -0.2098    9.6671    4.2940 Cl        1 <0>        -0.0466
     34 H1          2.7157    6.0184    1.1617 H         1 <0>         0.0770
     35 H2          4.2843    6.8074    1.4538 H         1 <0>         0.0791
     36 H3          3.3325    6.1847    2.8230 H         1 <0>         0.0631
     37 H4          3.6468    8.8665    0.3335 H         1 <0>         0.1380
     38 H5          2.5166   11.0428    0.5336 H         1 <0>         0.1401
     39 H6          0.8165   11.3966    2.2780 H         1 <0>         0.1410
     40 H7          1.0508    6.2723    3.4722 H         1 <0>         0.4077
     41 H8          1.2191    7.1146    8.0429 H         1 <0>         0.2016
     42 H9          0.3494    1.9517    7.1163 H         1 <0>         0.4545
     43 H10        -0.2756    0.3590    8.8607 H         1 <0>         0.1860
     44 H11         1.4581    4.3621   12.5724 H         1 <0>         0.1309
     45 H12         0.1613    5.2760   11.7653 H         1 <0>         0.1358
     46 H13        -0.2267    4.1885   13.1199 H         1 <0>         0.1083
     47 H14        -0.1795   -1.0367   13.3215 H         1 <0>         0.1249
     48 H15        -1.0392    0.5259   13.3352 H         1 <0>         0.1232
     49 H16        -2.5028   -1.4138   14.0090 H         1 <0>         0.1602
     50 H17        -3.0999   -0.5526   12.5701 H         1 <0>         0.1410
     51 H18        -2.1110   -3.0537   10.1885 H         1 <0>         0.1585
     52 H19        -2.8811   -1.4682   10.4370 H         1 <0>         0.1418
     53 H20        -0.6550   -1.1179    9.4992 H         1 <0>         0.1416
     54 H21         0.0756   -2.1281   10.7747 H         1 <0>         0.1211
     55 H22        -3.6469   -3.3459   13.4548 H         1 <0>         0.1465
     56 H23        -4.3202   -2.6321   11.9697 H         1 <0>         0.1464
     57 H24        -4.3221   -5.0710   11.7578 H         1 <0>         0.1026
     58 H25        -3.1180   -4.3904   10.6374 H         1 <0>         0.0719
     59 H26        -2.2211   -6.1961   11.9183 H         1 <0>         0.4154
     60 H27        -0.2308    1.8869   12.7032 H         1 <0>         0.4393
     61 H28        -1.4578   -2.9831   12.5075 H         1 <0>         0.4359
@<TRIPOS>BOND
     1    1    2 1
     2    1   34 1
     3    1   35 1
     4    1   36 1
     5    2    7 ar
     6    2    3 ar
     7    3    4 ar
     8    3   37 1
     9    4    5 ar
    10    4   38 1
    11    5    6 ar
    12    5   39 1
    13    6    7 ar
    14    6   33 1
    15    7    8 1
    16    8    9 am
    17    8   40 1
    18    9   10 2
    19    9   11 1
    20   11   15 1
    21   11   12 2
    22   12   13 1
    23   12   41 1
    24   13   14 2
    25   14   15 1
    26   14   16 1
    27   16   17 1
    28   16   42 1
    29   17   18 ar
    30   17   22 ar
    31   18   43 1
    32   18   19 ar
    33   19   24 1
    34   19   20 ar
    35   20   60 1
    36   20   21 ar
    37   21   23 1
    38   21   22 ar
    39   23   44 1
    40   23   45 1
    41   23   46 1
    42   24   29 1
    43   24   25 1
    44   25   26 1
    45   25   47 1
    46   25   48 1
    47   26   27 1
    48   26   49 1
    49   26   50 1
    50   27   28 1
    51   27   30 1
    52   27   61 1
    53   28   29 1
    54   28   51 1
    55   28   52 1
    56   29   53 1
    57   29   54 1
    58   30   31 1
    59   30   55 1
    60   30   56 1
    61   31   32 1
    62   31   57 1
    63   31   58 1
    64   32   59 1
@<TRIPOS>MOLECULE
ZINC19796018
   50    53     0     0     0
SMALL
USER_CHARGES

@<TRIPOS>ATOM
      1 C1          0.4322    1.5258   -0.3007 C.3       1 <0>         0.0191
      2 N1          0.3588    0.0600   -0.2370 N.3       1 <0>        -0.5429
      3 C2          0.8892   -0.5478   -1.4656 C.3       1 <0>         0.0237
      4 C3          0.7403   -2.0686   -1.3842 C.3       1 <0>        -0.0021
      5 N2          1.4722   -2.5705   -0.2138 N.4       1 <0>        -0.3861
      6 C4          0.9151   -1.9735    1.0072 C.3       1 <0>        -0.0074
      7 C5          1.0655   -0.4519    0.9457 C.3       1 <0>         0.0249
      8 C6          1.3439   -4.0323   -0.1463 C.3       1 <0>        -0.0068
      9 C7          2.2068   -4.5677    0.9982 C.3       1 <0>        -0.1854
     10 C8          2.0732   -6.0902    1.0685 C.3       1 <0>         0.1193
     11 N3          2.8994   -6.6028    2.1644 N.pl3     1 <0>        -0.5619
     12 C9          2.3073   -6.7118    3.4198 C.ar      1 <0>         0.1840
     13 C10         1.2062   -5.9139    3.7136 C.ar      1 <0>        -0.1637
     14 C11         0.5904   -6.0006    4.9475 C.ar      1 <0>        -0.0788
     15 C12         1.0643   -6.8816    5.9011 C.ar      1 <0>        -0.1271
     16 C13         2.1592   -7.6783    5.6209 C.ar      1 <0>        -0.0532
     17 C14         2.7836   -7.5952    4.3845 C.ar      1 <0>        -0.1512
     18 S1          4.1830   -8.6109    4.0491 S.3       1 <0>         0.0415
     19 C15         4.9315   -7.8547    2.6454 C.ar      1 <0>        -0.1476
     20 C16         4.2155   -6.9492    1.8701 C.ar      1 <0>         0.2000
     21 C17         4.8312   -6.3670    0.7672 C.ar      1 <0>        -0.1598
     22 C18         6.1359   -6.6918    0.4431 C.ar      1 <0>         0.0018
     23 C19         6.8388   -7.5989    1.2143 C.ar      1 <0>        -0.1199
     24 C20         6.2406   -8.1726    2.3150 C.ar      1 <0>        -0.0418
     25 Cl1         6.8934   -5.9581   -0.9359 Cl        1 <0>        -0.0546
     26 H1          1.4758    1.8353   -0.3560 H         1 <0>         0.0398
     27 H2         -0.0986    1.8780   -1.1851 H         1 <0>         0.0845
     28 H3         -0.0263    1.9516    0.5919 H         1 <0>         0.0848
     29 H4          0.3339   -0.1735   -2.3256 H         1 <0>         0.1249
     30 H5          1.9430   -0.2908   -1.5729 H         1 <0>         0.0607
     31 H6         -0.3148   -2.3258   -1.2907 H         1 <0>         0.1391
     32 H7          1.1460   -2.5223   -2.2884 H         1 <0>         0.1370
     33 H8         -0.1409   -2.2312    1.0885 H         1 <0>         0.1396
     34 H9          1.4505   -2.3567    1.8759 H         1 <0>         0.1348
     35 H10         2.1222   -0.1933    0.8781 H         1 <0>         0.0605
     36 H11         0.6388   -0.0076    1.8449 H         1 <0>         0.1242
     37 H12         0.3015   -4.2979    0.0297 H         1 <0>         0.1361
     38 H13         1.6765   -4.4701   -1.0875 H         1 <0>         0.1362
     39 H14         3.2492   -4.3021    0.8222 H         1 <0>         0.0957
     40 H15         1.8743   -4.1299    1.9394 H         1 <0>         0.0979
     41 H16         1.0308   -6.3557    1.2445 H         1 <0>         0.0988
     42 H17         2.4058   -6.5280    0.1273 H         1 <0>         0.0967
     43 H18         0.8309   -5.2228    2.9734 H         1 <0>         0.1241
     44 H19        -0.2638   -5.3776    5.1677 H         1 <0>         0.1332
     45 H20         0.5801   -6.9475    6.8642 H         1 <0>         0.1372
     46 H21         2.5293   -8.3668    6.3662 H         1 <0>         0.1388
     47 H22         4.2878   -5.6573    0.1610 H         1 <0>         0.1343
     48 H23         7.8572   -7.8515    0.9583 H         1 <0>         0.1475
     49 H24         6.7911   -8.8808    2.9166 H         1 <0>         0.1482
     50 H25         2.4468   -2.3222   -0.2949 H         1 <0>         0.4210
@<TRIPOS>BOND
     1    1    2 1
     2    1   26 1
     3    1   27 1
     4    1   28 1
     5    2    7 1
     6    2    3 1
     7    3    4 1
     8    3   29 1
     9    3   30 1
    10    4    5 1
    11    4   31 1
    12    4   32 1
    13    5    6 1
    14    5    8 1
    15    5   50 1
    16    6    7 1
    17    6   33 1
    18    6   34 1
    19    7   35 1
    20    7   36 1
    21    8    9 1
    22    8   37 1
    23    8   38 1
    24    9   10 1
    25    9   39 1
    26    9   40 1
    27   10   11 1
    28   10   41 1
    29   10   42 1
    30   11   20 1
    31   11   12 1
    32   12   17 ar
    33   12   13 ar
    34   13   14 ar
    35   13   43 1
    36   14   15 ar
    37   14   44 1
    38   15   16 ar
    39   15   45 1
    40   16   17 ar
    41   16   46 1
    42   17   18 1
    43   18   19 1
    44   19   24 ar
    45   19   20 ar
    46   20   21 ar
    47   21   22 ar
    48   21   47 1
    49   22   23 ar
    50   22   25 1
    51   23   24 ar
    52   23   48 1
    53   24   49 1
@<TRIPOS>MOLECULE
ZINC18202350
   58    61     0     0     0
SMALL
USER_CHARGES

@<TRIPOS>ATOM
      1 C1         -0.5077    1.1697   -0.7274 C.3       1 <0>        -0.1957
      2 C2         -0.3011   -0.3315   -0.5158 C.3       1 <0>         0.1820
      3 C3          0.3970   -0.9101   -1.7165 C.ar      1 <0>        -0.0721
      4 C4          0.3008   -0.2826   -2.9410 C.ar      1 <0>        -0.1298
      5 C5          0.9273   -0.8217   -4.0523 C.ar      1 <0>        -0.0714
      6 C6          1.6526   -1.9926   -3.9488 C.ar      1 <0>        -0.1442
      7 C7          1.7653   -2.6334   -2.7237 C.ar      1 <0>         0.1672
      8 C8          1.1404   -2.0847   -1.5973 C.ar      1 <0>        -0.1699
      9 C9          1.2855   -2.7250   -0.2748 C.2       1 <0>         0.4203
     10 C10         0.9076   -1.9911    0.8893 C.2       1 <0>        -0.2011
     11 C11         0.5295   -0.5525    0.7493 C.3       1 <0>        -0.0541
     12 H1          1.4533    0.0130    0.6275 H         1 <0>         0.1232
     13 C12        -0.1913    0.0418    1.9410 C.3       1 <0>         0.1253
     14 H2         -1.0705    0.5785    1.5845 H         1 <0>         0.0608
     15 C13        -0.6341   -0.9924    2.9626 C.3       1 <0>        -0.0758
     16 H3         -0.9968   -0.4860    3.8570 H         1 <0>         0.1275
     17 C14        -1.7477   -1.8694    2.3883 C.3       1 <0>        -0.0018
     18 H4         -1.3867   -2.3775    1.4941 H         1 <0>         0.1790
     19 C15        -2.1534   -2.8915    3.4194 C.2       1 <0>         0.4233
     20 O1         -3.2900   -3.3193    3.4306 O.2       1 <0>        -0.4914
     21 C16        -1.2206   -3.3537    4.3719 C.2       1 <0>        -0.4513
     22 C17        -1.6219   -4.2935    5.3337 C.2       1 <0>         0.5704
     23 N1         -2.9225   -4.6469    5.4316 N.pl3     1 <0>        -0.8177
     24 O2         -0.7123   -4.8422    6.1577 O.3       1 <0>        -0.4110
     25 C18         0.1102   -2.8846    4.3705 C.2       1 <0>         0.3929
     26 O3          0.8952   -3.2875    5.2048 O.2       1 <0>        -0.4383
     27 C19         0.5592   -1.8869    3.3308 C.3       1 <0>         0.1226
     28 C20         0.9460   -2.6322    2.0726 C.2       1 <0>         0.1281
     29 O4          1.3240   -3.9245    2.1352 O.3       1 <0>        -0.4460
     30 O5          1.6467   -1.1025    3.8249 O.3       1 <0>        -0.4896
     31 N2         -2.9042   -1.0317    2.0439 N.4       1 <0>        -0.3599
     32 C21        -3.8865   -1.8338    1.3025 C.3       1 <0>        -0.0600
     33 C22        -3.5204   -0.5178    3.2745 C.3       1 <0>        -0.0702
     34 O6          0.6809    0.9726    2.5852 O.3       1 <0>        -0.5283
     35 O7          1.7195   -3.8590   -0.1792 O.2       1 <0>        -0.4000
     36 O8          2.4761   -3.7842   -2.6178 O.3       1 <0>        -0.4777
     37 O9         -1.5727   -0.9646   -0.3608 O.3       1 <0>        -0.5814
     38 H5          0.4608    1.6579   -0.8361 H         1 <0>         0.0867
     39 H6         -1.0994    1.3315   -1.6284 H         1 <0>         0.0827
     40 H7         -1.0316    1.5890    0.1316 H         1 <0>         0.0716
     41 H8         -0.2655    0.6323   -3.0336 H         1 <0>         0.1375
     42 H9          0.8479   -0.3230   -5.0069 H         1 <0>         0.1385
     43 H10         2.1318   -2.4096   -4.8222 H         1 <0>         0.1416
     44 H11        -3.1614   -5.5518    5.6865 H         1 <0>         0.4206
     45 H12        -3.6173   -3.9956    5.2469 H         1 <0>         0.4347
     46 H13        -1.0830   -5.4776    6.7853 H         1 <0>         0.4191
     47 H14         2.4251   -1.6205    4.0716 H         1 <0>         0.3940
     48 H15        -4.6804   -1.1851    0.9326 H         1 <0>         0.1222
     49 H16        -3.3954   -2.3229    0.4612 H         1 <0>         0.1240
     50 H17        -4.3124   -2.5887    1.9635 H         1 <0>         0.1463
     51 H18        -2.8177    0.1407    3.7851 H         1 <0>         0.1218
     52 H19        -4.4233    0.0389    3.0236 H         1 <0>         0.1328
     53 H20        -3.7773   -1.3516    3.9277 H         1 <0>         0.1283
     54 H21         0.9629    1.7040    2.0190 H         1 <0>         0.3878
     55 H22         3.4111   -3.6513   -2.4101 H         1 <0>         0.3988
     56 H23        -2.1866   -0.7976   -1.0891 H         1 <0>         0.3950
     57 H24         2.0606   -4.0900    2.7396 H         1 <0>         0.4070
     58 H25        -2.6007   -0.2583    1.4714 H         1 <0>         0.4249
@<TRIPOS>BOND
     1    1    2 1
     2    1   38 1
     3    1   39 1
     4    1   40 1
     5    2   11 1
     6    2    3 1
     7    2   37 1
     8    3    8 ar
     9    3    4 ar
    10    4    5 ar
    11    4   41 1
    12    5    6 ar
    13    5   42 1
    14    6    7 ar
    15    6   43 1
    16    7    8 ar
    17    7   36 1
    18    8    9 1
    19    9   10 1
    20    9   35 2
    21   10   28 2
    22   10   11 1
    23   11   12 1
    24   11   13 1
    25   13   14 1
    26   13   15 1
    27   13   34 1
    28   15   16 1
    29   15   27 1
    30   15   17 1
    31   17   18 1
    32   17   19 1
    33   17   31 1
    34   19   20 2
    35   19   21 1
    36   21   22 2
    37   21   25 1
    38   22   23 1
    39   22   24 1
    40   23   44 1
    41   23   45 1
    42   24   46 1
    43   25   26 2
    44   25   27 1
    45   27   28 1
    46   27   30 1
    47   28   29 1
    48   29   57 1
    49   30   47 1
    50   31   32 1
    51   31   33 1
    52   31   58 1
    53   32   48 1
    54   32   49 1
    55   32   50 1
    56   33   51 1
    57   33   52 1
    58   33   53 1
    59   34   54 1
    60   36   55 1
    61   37   56 1
@<TRIPOS>MOLECULE
ZINC38140940
   91    92     0     0     0
SMALL
USER_CHARGES

@<TRIPOS>ATOM
      1 C1         -3.4926    0.2382   -1.0651 C.3       1 <0>        -0.1434
      2 C2         -2.8767   -1.1570   -0.9427 C.3       1 <0>        -0.1255
      3 C3         -3.7291   -2.1608   -1.7217 C.3       1 <0>        -0.1446
      4 C4         -1.4793   -1.1405   -1.5066 C.2       1 <0>         0.4017
      5 O1         -1.3029   -0.8966   -2.6760 O.2       1 <0>        -0.4160
      6 C5         -0.2969   -1.4295   -0.6071 C.3       1 <0>        -0.1970
      7 C6         -0.3406   -2.8608   -0.1136 C.2       1 <0>         0.4045
      8 C7          0.6118   -3.3117    0.9694 C.3       1 <0>        -0.1820
      9 C8          0.7511   -2.2330    2.0180 C.2       1 <0>         0.3729
     10 O2          0.8223   -2.5365    3.1920 O.2       1 <0>        -0.3842
     11 C9          0.8015   -0.7767    1.6096 C.3       1 <0>        -0.1351
     12 C10        -0.3366   -0.5417    0.6281 C.2       1 <0>         0.3941
     13 O3         -1.2010    0.2793    0.8144 O.2       1 <0>        -0.3961
     14 C11         2.1101   -0.4944    0.8689 C.3       1 <0>        -0.0965
     15 C12         2.2273   -1.2938   -0.4196 C.3       1 <0>        -0.0907
     16 H1          2.3985   -2.3459   -0.1887 H         1 <0>         0.0851
     17 C13         1.0192   -1.1582   -1.3361 C.3       1 <0>        -0.0185
     18 C14         0.9865    0.2605   -1.9237 C.3       1 <0>        -0.1661
     19 C15         1.1638   -2.1522   -2.4994 C.3       1 <0>        -0.1181
     20 C16         1.3715   -3.5621   -1.9427 C.3       1 <0>        -0.1441
     21 C17         1.6631   -4.5117   -3.0759 C.2       1 <0>        -0.1571
     22 C18         2.7739   -5.2060   -3.0792 C.2       1 <0>        -0.1322
     23 C19         3.7639   -5.0493   -1.9538 C.3       1 <0>        -0.1235
     24 C20         3.0619   -6.1615   -4.2085 C.3       1 <0>        -0.1181
     25 C21         3.4690   -0.7966   -1.1847 C.3       1 <0>        -0.0927
     26 C22         4.7109   -1.1364   -0.4017 C.2       1 <0>        -0.1724
     27 C23         5.5708   -0.1963   -0.0969 C.2       1 <0>        -0.1231
     28 C24         5.3882    1.1971   -0.6411 C.3       1 <0>        -0.1245
     29 C25         6.7427   -0.5082    0.7978 C.3       1 <0>        -0.1204
     30 C26         0.6582    0.1383    2.8346 C.3       1 <0>        -0.0634
     31 C27        -0.6611   -0.1311    3.5112 C.2       1 <0>        -0.1834
     32 C28        -0.6959   -0.4124    4.7902 C.2       1 <0>        -0.1042
     33 C29         0.5884   -0.5549    5.5656 C.3       1 <0>        -0.1215
     34 C30        -2.0203   -0.5935    5.4861 C.3       1 <0>        -0.1198
     35 C31         0.0387   -4.5743    1.6348 C.3       1 <0>        -0.0768
     36 C32         1.0315   -5.1103    2.6338 C.2       1 <0>        -0.1730
     37 C33         0.6698   -5.3028    3.8781 C.2       1 <0>        -0.0969
     38 C34        -0.7454   -5.0099    4.3053 C.3       1 <0>        -0.1196
     39 C35         1.6688   -5.8172    4.8823 C.3       1 <0>        -0.1173
     40 O4         -1.1404   -3.6442   -0.5830 O.2       1 <0>        -0.4146
     41 H2         -2.9513    0.9320   -0.4219 H         1 <0>         0.0724
     42 H3         -3.4267    0.5750   -2.0996 H         1 <0>         0.0620
     43 H4         -4.5387    0.2015   -0.7609 H         1 <0>         0.0674
     44 H5         -2.8415   -1.4479    0.1071 H         1 <0>         0.0805
     45 H6         -3.7643   -1.8700   -2.7716 H         1 <0>         0.0647
     46 H7         -3.2903   -3.1548   -1.6346 H         1 <0>         0.0681
     47 H8         -4.7398   -2.1728   -1.3139 H         1 <0>         0.0673
     48 H9          2.1797    0.5752    0.6489 H         1 <0>         0.0883
     49 H10         2.9519   -0.7514    1.5257 H         1 <0>         0.0913
     50 H11         0.8878    0.9860   -1.1162 H         1 <0>         0.0534
     51 H12         1.9106    0.4487   -2.4703 H         1 <0>         0.0752
     52 H13         0.1380    0.3536   -2.6015 H         1 <0>         0.0864
     53 H14         0.2606   -2.1317   -3.1092 H         1 <0>         0.0901
     54 H15         2.0217   -1.8731   -3.1112 H         1 <0>         0.0804
     55 H16         2.2105   -3.5581   -1.2470 H         1 <0>         0.0781
     56 H17         0.4694   -3.8837   -1.4222 H         1 <0>         0.0887
     57 H18         0.9563   -4.6198   -3.8853 H         1 <0>         0.1079
     58 H19         3.4697   -5.6864   -1.1198 H         1 <0>         0.0654
     59 H20         4.7561   -5.3388   -2.2998 H         1 <0>         0.0618
     60 H21         3.7818   -4.0093   -1.6279 H         1 <0>         0.0669
     61 H22         3.6007   -5.6385   -4.9985 H         1 <0>         0.0661
     62 H23         3.6699   -6.9875   -3.8394 H         1 <0>         0.0620
     63 H24         2.1234   -6.5497   -4.6042 H         1 <0>         0.0615
     64 H25         3.5115   -1.2793   -2.1610 H         1 <0>         0.0809
     65 H26         3.4064    0.2837   -1.3159 H         1 <0>         0.0823
     66 H27         4.8921   -2.1550   -0.0919 H         1 <0>         0.1079
     67 H28         4.7546    1.7711    0.0351 H         1 <0>         0.0669
     68 H29         6.3598    1.6832   -0.7288 H         1 <0>         0.0627
     69 H30         4.9180    1.1450   -1.6230 H         1 <0>         0.0668
     70 H31         7.5879   -0.8312    0.1901 H         1 <0>         0.0659
     71 H32         7.0188    0.3843    1.3592 H         1 <0>         0.0638
     72 H33         6.4688   -1.3034    1.4912 H         1 <0>         0.0620
     73 H34         1.4716   -0.0593    3.5328 H         1 <0>         0.0927
     74 H35         0.6974    1.1801    2.5166 H         1 <0>         0.0854
     75 H36        -1.5779   -0.0923    2.9417 H         1 <0>         0.1117
     76 H37         0.9272    0.4286    5.8913 H         1 <0>         0.0615
     77 H38         0.4185   -1.1875    6.4368 H         1 <0>         0.0587
     78 H39         1.3483   -1.0088    4.9296 H         1 <0>         0.0769
     79 H40        -2.3181   -1.6408    5.4338 H         1 <0>         0.0652
     80 H41        -1.9262   -0.2943    6.5300 H         1 <0>         0.0632
     81 H42        -2.7747    0.0235    4.9979 H         1 <0>         0.0611
     82 H43        -0.8919   -4.3256    2.1450 H         1 <0>         0.0825
     83 H44        -0.1550   -5.3301    0.8737 H         1 <0>         0.0913
     84 H45         2.0412   -5.3358    2.3240 H         1 <0>         0.1072
     85 H46        -1.3606   -5.8975    4.1578 H         1 <0>         0.0635
     86 H47        -0.7565   -4.7311    5.3590 H         1 <0>         0.0608
     87 H48        -1.1427   -4.1891    3.7081 H         1 <0>         0.0657
     88 H49         2.1782   -4.9757    5.3518 H         1 <0>         0.0682
     89 H50         1.1510   -6.3996    5.6444 H         1 <0>         0.0608
     90 H51         2.3998   -6.4484    4.3769 H         1 <0>         0.0602
     91 H52         1.5807   -3.5651    0.5480 H         1 <0>         0.1527
@<TRIPOS>BOND
     1    1    2 1
     2    1   41 1
     3    1   42 1
     4    1   43 1
     5    2    3 1
     6    2    4 1
     7    2   44 1
     8    3   45 1
     9    3   46 1
    10    3   47 1
    11    4    5 2
    12    4    6 1
    13    6   12 1
    14    6   17 1
    15    6    7 1
    16    7    8 1
    17    7   40 2
    18    8    9 1
    19    8   35 1
    20    8   91 1
    21    9   10 2
    22    9   11 1
    23   11   12 1
    24   11   14 1
    25   11   30 1
    26   12   13 2
    27   14   15 1
    28   14   48 1
    29   14   49 1
    30   15   16 1
    31   15   17 1
    32   15   25 1
    33   17   18 1
    34   17   19 1
    35   18   50 1
    36   18   51 1
    37   18   52 1
    38   19   20 1
    39   19   53 1
    40   19   54 1
    41   20   21 1
    42   20   55 1
    43   20   56 1
    44   21   22 2
    45   21   57 1
    46   22   23 1
    47   22   24 1
    48   23   58 1
    49   23   59 1
    50   23   60 1
    51   24   61 1
    52   24   62 1
    53   24   63 1
    54   25   26 1
    55   25   64 1
    56   25   65 1
    57   26   27 2
    58   26   66 1
    59   27   28 1
    60   27   29 1
    61   28   67 1
    62   28   68 1
    63   28   69 1
    64   29   70 1
    65   29   71 1
    66   29   72 1
    67   30   31 1
    68   30   73 1
    69   30   74 1
    70   31   32 2
    71   31   75 1
    72   32   33 1
    73   32   34 1
    74   33   76 1
    75   33   77 1
    76   33   78 1
    77   34   79 1
    78   34   80 1
    79   34   81 1
    80   35   36 1
    81   35   82 1
    82   35   83 1
    83   36   37 2
    84   36   84 1
    85   37   38 1
    86   37   39 1
    87   38   85 1
    88   38   86 1
    89   38   87 1
    90   39   88 1
    91   39   89 1
    92   39   90 1
@<TRIPOS>MOLECULE
ZINC16343331
   33    33     0     0     0
SMALL
USER_CHARGES

@<TRIPOS>ATOM
      1 C1         -0.0303    1.5404   -0.0378 C.3       1 <0>        -0.1603
      2 C2         -0.0043    0.0106   -0.0277 C.3       1 <0>         0.1447
      3 C3          0.7394   -0.4786    1.2166 C.3       1 <0>        -0.1726
      4 N1         -1.3770   -0.5010   -0.0089 N.pl3     1 <0>        -0.7562
      5 C4         -1.6497   -1.7555   -0.5005 C.2       1 <0>         0.6447
      6 N2         -0.6878   -2.4892   -0.9830 N.2       1 <0>        -0.8179
      7 N3         -2.9421   -2.2372   -0.4827 N.pl3     1 <0>        -0.6815
      8 C5         -3.2370   -3.4432   -1.0842 C.2       1 <0>         0.6456
      9 N4         -4.4726   -3.8484   -1.1595 N.2       1 <0>        -0.7918
     10 N5         -2.2258   -4.2180   -1.6048 N.pl3     1 <0>        -0.6417
     11 C6         -2.5114   -5.4872   -2.1201 C.ar      1 <0>         0.1775
     12 C7         -3.7095   -5.7147   -2.7844 C.ar      1 <0>        -0.1067
     13 C8         -3.9889   -6.9684   -3.2920 C.ar      1 <0>        -0.0949
     14 C9         -3.0765   -7.9974   -3.1388 C.ar      1 <0>        -0.0597
     15 C10        -1.8818   -7.7734   -2.4773 C.ar      1 <0>        -0.0926
     16 C11        -1.5947   -6.5200   -1.9731 C.ar      1 <0>        -0.1411
     17 Cl1        -3.4313   -9.5723   -3.7771 Cl        1 <0>        -0.0800
     18 H1          0.9909    1.9210   -0.0518 H         1 <0>         0.0779
     19 H2         -0.5602    1.8889   -0.9243 H         1 <0>         0.0644
     20 H3         -0.5403    1.9010    0.8555 H         1 <0>         0.0641
     21 H4          0.5056   -0.3500   -0.9210 H         1 <0>         0.0826
     22 H5          1.7607   -0.0979    1.2026 H         1 <0>         0.0718
     23 H6          0.2295   -0.1180    2.1100 H         1 <0>         0.0623
     24 H7          0.7580   -1.5684    1.2238 H         1 <0>         0.0602
     25 H8         -2.0933    0.0454    0.3505 H         1 <0>         0.3978
     26 H9         -3.6435   -1.7280   -0.0473 H         1 <0>         0.4225
     27 H10        -5.1916   -3.2710   -0.8586 H         1 <0>         0.3409
     28 H11        -1.3150   -3.8843   -1.6145 H         1 <0>         0.4351
     29 H12        -4.4223   -4.9122   -2.9037 H         1 <0>         0.1553
     30 H13        -4.9206   -7.1459   -3.8087 H         1 <0>         0.1311
     31 H14        -1.1716   -8.5783   -2.3587 H         1 <0>         0.1324
     32 H15        -0.6602   -6.3444   -1.4611 H         1 <0>         0.1301
     33 H16         0.2211   -2.1504   -0.9955 H         1 <0>         0.3561
@<TRIPOS>BOND
     1    1    2 1
     2    1   18 1
     3    1   19 1
     4    1   20 1
     5    2    3 1
     6    2    4 1
     7    2   21 1
     8    3   22 1
     9    3   23 1
    10    3   24 1
    11    4    5 1
    12    4   25 1
    13    5    6 2
    14    5    7 1
    15    6   33 1
    16    7    8 1
    17    7   26 1
    18    8    9 2
    19    8   10 1
    20    9   27 1
    21   10   11 1
    22   10   28 1
    23   11   16 ar
    24   11   12 ar
    25   12   13 ar
    26   12   29 1
    27   13   14 ar
    28   13   30 1
    29   14   15 ar
    30   14   17 1
    31   15   16 ar
    32   15   31 1
    33   16   32 1
@<TRIPOS>MOLECULE
ZINC16343331
   33    33     0     0     0
SMALL
NO_CHARGES

@<TRIPOS>ATOM
      1 C1         -1.0704   -4.1801    1.1435 C.3       1 <0>        -0.1631
      2 C2         -0.6520   -2.7940    0.6490 C.3       1 <0>         0.1592
      3 C3         -1.6973   -2.2669   -0.3361 C.3       1 <0>        -0.1642
      4 N1         -0.5500   -1.8792    1.7888 N.pl3     1 <0>        -0.7178
      5 C4          0.6107   -1.8227    2.5231 C.2       1 <0>         0.6297
      6 N2          1.5849   -2.6481    2.2658 N.2       1 <0>        -0.7543
      7 N3          0.7437   -0.8920    3.5323 N.pl3     1 <0>        -0.7866
      8 C5          0.0735   -1.0675    4.7253 C.2       1 <0>         0.6253
      9 N4          0.7227   -1.4538    5.7863 N.2       1 <0>        -0.7343
     10 N5         -1.2811   -0.8345    4.7943 N.pl3     1 <0>        -0.6584
     11 C6         -1.9375   -0.8843    6.0290 C.ar      1 <0>         0.1765
     12 C7         -1.2674   -0.5166    7.1885 C.ar      1 <0>        -0.1018
     13 C8         -1.9177   -0.5667    8.4059 C.ar      1 <0>        -0.0901
     14 C9         -3.2357   -0.9834    8.4710 C.ar      1 <0>        -0.0555
     15 C10        -3.9058   -1.3503    7.3172 C.ar      1 <0>        -0.0885
     16 C11        -3.2621   -1.2962    6.0965 C.ar      1 <0>        -0.1430
     17 Cl1        -4.0498   -1.0463   10.0030 Cl        1 <0>        -0.0729
     18 H1         -2.0373   -4.1115    1.6419 H         1 <0>         0.0509
     19 H2         -1.1462   -4.8607    0.2955 H         1 <0>         0.0636
     20 H3         -0.3257   -4.5556    1.8453 H         1 <0>         0.0632
     21 H4          0.3150   -2.8626    0.1506 H         1 <0>         0.0917
     22 H5         -2.6642   -2.1983    0.1624 H         1 <0>         0.0587
     23 H6         -1.3992   -1.2794   -0.6883 H         1 <0>         0.0607
     24 H7         -1.7731   -2.9475   -1.1840 H         1 <0>         0.0746
     25 H8         -1.3015   -1.3133    2.0253 H         1 <0>         0.3950
     26 H9          2.3742   -2.6576    2.8296 H         1 <0>         0.3488
     27 H10         1.3085   -0.1140    3.4033 H         1 <0>         0.4183
     28 H11         1.6877   -1.5480    5.7570 H         1 <0>         0.3535
     29 H12        -1.7808   -0.6358    3.9870 H         1 <0>         0.4097
     30 H13        -0.2385   -0.1921    7.1383 H         1 <0>         0.1494
     31 H14        -1.3970   -0.2809    9.3078 H         1 <0>         0.1348
     32 H15        -4.9343   -1.6755    7.3709 H         1 <0>         0.1356
     33 H16        -3.7870   -1.5781    5.1957 H         1 <0>         0.1313
@<TRIPOS>BOND
     1    1    2 1
     2    1   18 1
     3    1   19 1
     4    1   20 1
     5    2    3 1
     6    2    4 1
     7    2   21 1
     8    3   22 1
     9    3   23 1
    10    3   24 1
    11    4    5 1
    12    4   25 1
    13    5    6 2
    14    5    7 1
    15    6   26 1
    16    7    8 1
    17    7   27 1
    18    8    9 2
    19    8   10 1
    20    9   28 1
    21   10   11 1
    22   10   29 1
    23   11   16 ar
    24   11   12 ar
    25   12   13 ar
    26   12   30 1
    27   13   14 ar
    28   13   31 1
    29   14   15 ar
    30   14   17 1
    31   15   16 ar
    32   15   32 1
    33   16   33 1
@<TRIPOS>MOLECULE
ZINC08035131
   12    11     0     0     0
SMALL
USER_CHARGES

@<TRIPOS>ATOM
      1 C1         -0.0226    1.8187    0.0120 C.3       1 <0>        -0.9514
      2 P1          0.0021   -0.0041    0.0020 P.3       1 <0>         2.2412
      3 O1          0.7493   -0.5159    1.2537 O.2       1 <0>        -1.0591
      4 O2         -1.5084   -0.5613    0.0134 O.3       1 <0>        -0.9000
      5 O3          0.7253   -0.5023   -1.2691 O.3       1 <0>        -1.0590
      6 P2          1.6876    2.4497   -0.0009 P.3       1 <0>         2.1726
      7 O4          2.4453    1.9308    1.2683 O.2       1 <0>        -1.1387
      8 O5          2.4209    1.9445   -1.2899 O.3       1 <0>        -1.1387
      9 O6          1.6664    4.0162    0.0077 O.3       1 <0>        -1.1704
     10 Cl1        -0.8947    2.4160   -1.4487 Cl        1 <0>        -0.1941
     11 Cl2        -0.8666    2.4002    1.4955 Cl        1 <0>        -0.1941
     12 H1         -1.5716   -1.5263    0.0088 H         1 <0>         0.3917
@<TRIPOS>BOND
     1    1    2 1
     2    1    6 1
     3    1   10 1
     4    1   11 1
     5    2    3 2
     6    2    4 1
     7    2    5 1
     8    4   12 1
     9    6    7 2
    10    6    8 1
    11    6    9 1
@<TRIPOS>MOLECULE
ZINC05508997
   27    27     0     0     0
SMALL
USER_CHARGES

@<TRIPOS>ATOM
      1 C1         -0.0187    1.5258    0.0104 C.3       1 <0>        -0.1557
      2 C2          0.0021   -0.0041    0.0020 C.3       1 <0>        -0.0945
      3 C3         -1.4333   -0.5336    0.0129 C.3       1 <0>        -0.1379
      4 C4         -2.0867   -0.1530   -1.3016 C.2       1 <0>         0.4931
      5 O1         -1.5664   -0.5494   -2.4741 O.3       1 <0>        -0.6355
      6 N1         -3.1738    0.5734   -1.2568 N.2       1 <0>        -0.6752
      7 C5         -3.7196    0.9852   -0.1078 C.2       1 <0>         0.6726
      8 N2         -3.2338    0.7123    1.1097 N.am      1 <0>        -0.5938
      9 C6         -2.1141   -0.0273    1.2712 C.2       1 <0>         0.5472
     10 O2         -1.6731   -0.2756    2.3729 O.2       1 <0>        -0.5202
     11 C7         -3.9305    1.2261    2.2915 C.3       1 <0>         0.0735
     12 O3         -4.7314    1.6574   -0.1733 O.2       1 <0>        -0.5738
     13 C8         -1.3734   -2.0607    0.0855 C.3       1 <0>        -0.0944
     14 C9         -2.7948   -2.6269    0.0982 C.3       1 <0>        -0.1556
     15 H1          1.0039    1.9031    0.0027 H         1 <0>         0.0586
     16 H2         -0.5459    1.8868   -0.8726 H         1 <0>         0.0609
     17 H3         -0.5289    1.8773    0.9072 H         1 <0>         0.0451
     18 H4          0.5123   -0.3556   -0.8948 H         1 <0>         0.0852
     19 H5          0.5293   -0.3651    0.8851 H         1 <0>         0.0689
     20 H6         -4.8052    1.7961    1.9784 H         1 <0>         0.0951
     21 H7         -4.2456    0.3922    2.9187 H         1 <0>         0.0591
     22 H8         -3.2590    1.8724    2.8568 H         1 <0>         0.0591
     23 H9         -0.8370   -2.4450   -0.7821 H         1 <0>         0.0846
     24 H10        -0.8545   -2.3611    0.9958 H         1 <0>         0.0688
     25 H11        -3.3136   -2.3265   -0.8121 H         1 <0>         0.0623
     26 H12        -2.7521   -3.7148    0.1500 H         1 <0>         0.0582
     27 H13        -3.3311   -2.2426    0.9658 H         1 <0>         0.0444
@<TRIPOS>BOND
     1    1    2 1
     2    1   15 1
     3    1   16 1
     4    1   17 1
     5    2   18 1
     6    2   19 1
     7    2    3 1
     8    3    9 1
     9    3   13 1
    10    3    4 1
    11    4    5 1
    12    4    6 2
    13    6    7 1
    14    7   12 2
    15    7    8 am
    16    8    9 am
    17    8   11 1
    18    9   10 2
    19   11   20 1
    20   11   21 1
    21   11   22 1
    22   13   14 1
    23   13   23 1
    24   13   24 1
    25   14   25 1
    26   14   26 1
    27   14   27 1
@<TRIPOS>MOLECULE
ZINC12503187
   64    69     0     0     0
SMALL
USER_CHARGES

@<TRIPOS>ATOM
      1 C1         -5.1201   10.1139   -2.3917 C.3       1 <0>        -0.0700
      2 C2         -4.4866    8.7544   -2.2447 C.2       1 <0>         0.2150
      3 N1         -3.1612    8.5170   -2.0886 N.pl3     1 <0>        -0.5485
      4 C3         -3.0119    7.1651   -2.0003 C.2       1 <0>        -0.0025
      5 C4         -4.2602    6.6155   -2.0926 C.2       1 <0>         0.0402
      6 N2         -5.1287    7.6135   -2.2416 N.2       1 <0>        -0.4738
      7 C5         -4.5237    5.1359   -2.0107 C.3       1 <0>        -0.0539
      8 C6         -3.9940    4.4354   -3.2668 C.3       1 <0>         0.1200
      9 N3         -2.6766    4.9755   -3.6226 N.am      1 <0>        -0.5633
     10 C7         -1.6793    5.2075   -2.6781 C.ar      1 <0>         0.1542
     11 C8         -1.7985    6.3403   -1.8491 C.ar      1 <0>        -0.0205
     12 C9         -0.8021    6.6378   -0.9315 C.ar      1 <0>        -0.1014
     13 C10         0.2924    5.8005   -0.8178 C.ar      1 <0>        -0.1085
     14 C11         0.3943    4.6714   -1.6114 C.ar      1 <0>        -0.0990
     15 C12        -0.5867    4.3734   -2.5404 C.ar      1 <0>        -0.1025
     16 C13        -2.4215    5.2589   -4.9153 C.2       1 <0>         0.5680
     17 O1         -3.2378    4.9781   -5.7718 O.2       1 <0>        -0.5198
     18 C14        -1.1519    5.9099   -5.2912 C.ar      1 <0>        -0.1463
     19 C15        -0.4454    5.4709   -6.4146 C.ar      1 <0>        -0.0427
     20 C16         0.7385    6.0808   -6.7628 C.ar      1 <0>        -0.1265
     21 C17         1.2324    7.1329   -5.9976 C.ar      1 <0>         0.1768
     22 C18         0.5318    7.5721   -4.8783 C.ar      1 <0>        -0.1539
     23 C19        -0.6559    6.9707   -4.5282 C.ar      1 <0>        -0.0623
     24 N4          2.4315    7.7477   -6.3526 N.am      1 <0>        -0.6709
     25 C20         3.4106    7.0285   -6.9361 C.2       1 <0>         0.5565
     26 O2          3.2859    5.8263   -7.0677 O.2       1 <0>        -0.4873
     27 C21         4.6343    7.7003   -7.4152 C.ar      1 <0>        -0.1304
     28 C22         4.5895    9.0342   -7.8220 C.ar      1 <0>        -0.0857
     29 C23         5.7362    9.6570   -8.2689 C.ar      1 <0>        -0.1237
     30 C24         6.9359    8.9663   -8.3172 C.ar      1 <0>        -0.0877
     31 C25         6.9992    7.6461   -7.9192 C.ar      1 <0>        -0.1129
     32 C26         5.8542    7.0017   -7.4591 C.ar      1 <0>         0.0140
     33 C27         5.9190    5.5866   -7.0242 C.ar      1 <0>        -0.0467
     34 C28         5.4912    5.2268   -5.7467 C.ar      1 <0>        -0.0803
     35 C29         5.5535    3.9073   -5.3475 C.ar      1 <0>        -0.1162
     36 C30         6.0391    2.9425   -6.2118 C.ar      1 <0>        -0.1126
     37 C31         6.4649    3.2935   -7.4803 C.ar      1 <0>        -0.1199
     38 C32         6.4025    4.6088   -7.8927 C.ar      1 <0>        -0.0988
     39 H1         -5.3778   10.5031   -1.4067 H         1 <0>         0.0834
     40 H2         -4.4179   10.7913   -2.8778 H         1 <0>         0.0750
     41 H3         -6.0228   10.0306   -2.9970 H         1 <0>         0.0940
     42 H4         -4.0244    4.7280   -1.1318 H         1 <0>         0.0817
     43 H5         -5.5968    4.9641   -1.9265 H         1 <0>         0.0977
     44 H6         -3.9071    3.3658   -3.0753 H         1 <0>         0.0791
     45 H7         -4.6872    4.5988   -4.0920 H         1 <0>         0.1017
     46 H8         -0.8804    7.5178   -0.3103 H         1 <0>         0.1262
     47 H9          1.0720    6.0290   -0.1061 H         1 <0>         0.1303
     48 H10         1.2474    4.0176   -1.5049 H         1 <0>         0.1313
     49 H11        -0.4985    3.4904   -3.1559 H         1 <0>         0.1311
     50 H12        -0.8278    4.6540   -7.0085 H         1 <0>         0.1347
     51 H13         1.2849    5.7421   -7.6307 H         1 <0>         0.1429
     52 H14         0.9180    8.3887   -4.2864 H         1 <0>         0.1285
     53 H15        -1.2014    7.3150   -3.6620 H         1 <0>         0.1303
     54 H16         2.5614    8.6933   -6.1799 H         1 <0>         0.4118
     55 H17         3.6575    9.5787   -7.7873 H         1 <0>         0.1295
     56 H18         5.6983   10.6895   -8.5835 H         1 <0>         0.1324
     57 H19         7.8276    9.4639   -8.6688 H         1 <0>         0.1326
     58 H20         7.9383    7.1143   -7.9601 H         1 <0>         0.1341
     59 H21         5.1123    5.9792   -5.0710 H         1 <0>         0.1102
     60 H22         5.2229    3.6274   -4.3582 H         1 <0>         0.1203
     61 H23         6.0863    1.9111   -5.8948 H         1 <0>         0.1211
     62 H24         6.8434    2.5359   -8.1506 H         1 <0>         0.1231
     63 H25         6.7314    4.8811   -8.8848 H         1 <0>         0.1210
     64 H26        -2.4553    9.1811   -2.0476 H         1 <0>         0.4199
@<TRIPOS>BOND
     1    1   39 1
     2    1   40 1
     3    1   41 1
     4    1    2 1
     5    2    6 2
     6    2    3 1
     7    3    4 1
     8    3   64 1
     9    4    5 2
    10    4   11 1
    11    5    6 1
    12    5    7 1
    13    7    8 1
    14    7   42 1
    15    7   43 1
    16    8    9 1
    17    8   44 1
    18    8   45 1
    19    9   10 1
    20    9   16 am
    21   10   15 ar
    22   10   11 ar
    23   11   12 ar
    24   12   13 ar
    25   12   46 1
    26   13   14 ar
    27   13   47 1
    28   14   15 ar
    29   14   48 1
    30   15   49 1
    31   16   17 2
    32   16   18 1
    33   18   23 ar
    34   18   19 ar
    35   19   20 ar
    36   19   50 1
    37   20   21 ar
    38   20   51 1
    39   21   22 ar
    40   21   24 1
    41   22   23 ar
    42   22   52 1
    43   23   53 1
    44   24   25 am
    45   24   54 1
    46   25   26 2
    47   25   27 1
    48   27   32 ar
    49   27   28 ar
    50   28   29 ar
    51   28   55 1
    52   29   30 ar
    53   29   56 1
    54   30   31 ar
    55   30   57 1
    56   31   32 ar
    57   31   58 1
    58   32   33 1
    59   33   38 ar
    60   33   34 ar
    61   34   35 ar
    62   34   59 1
    63   35   36 ar
    64   35   60 1
    65   36   37 ar
    66   36   61 1
    67   37   38 ar
    68   37   62 1
    69   38   63 1
@<TRIPOS>MOLECULE
ZINC12504271
   44    47     0     0     0
SMALL
USER_CHARGES

@<TRIPOS>ATOM
      1 C1         -0.0166    1.3766    0.0096 C.ar      1 <0>        -0.0988
      2 C2          1.1680    2.0923    0.0021 C.ar      1 <0>        -0.1609
      3 C3          2.3724    1.4230   -0.0220 C.ar      1 <0>        -0.0727
      4 C4          2.3963    0.0244   -0.0331 C.ar      1 <0>        -0.1908
      5 C5          1.2048   -0.6946   -0.0102 C.ar      1 <0>        -0.0026
      6 C6          0.0021   -0.0041    0.0020 C.ar      1 <0>        -0.1070
      7 C7          1.1521   -2.1989    0.0268 C.3       1 <0>         0.1534
      8 H1          0.9310   -2.5241    1.0434 H         1 <0>         0.0264
      9 C8          2.4657   -2.7997   -0.4105 C.2       1 <0>         0.3783
     10 O1          2.5135   -3.7672   -1.1401 O.2       1 <0>        -0.4427
     11 C9          3.6992   -2.1425    0.1002 C.2       1 <0>        -0.2655
     12 C10         4.7147   -2.8242    0.6760 C.2       1 <0>        -0.0109
     13 C11         4.6512   -4.3277    0.8293 C.3       1 <0>        -0.0965
     14 C12         4.9561   -4.6819    2.2886 C.3       1 <0>        -0.1071
     15 C13         6.2954   -4.0632    2.6925 C.3       1 <0>        -0.0524
     16 C14         6.2020   -2.5378    2.6294 C.3       1 <0>        -0.1071
     17 C15         5.9465   -2.1036    1.1777 C.3       1 <0>        -0.1019
     18 C16         6.6392   -4.4863    4.0974 C.ar      1 <0>        -0.0642
     19 C17         5.7903   -4.1699    5.1416 C.ar      1 <0>        -0.1007
     20 C18         6.1051   -4.5577    6.4303 C.ar      1 <0>        -0.1075
     21 C19         7.2701   -5.2627    6.6752 C.ar      1 <0>        -0.0416
     22 C20         8.1193   -5.5790    5.6298 C.ar      1 <0>        -0.1097
     23 C21         7.8006   -5.1956    4.3407 C.ar      1 <0>        -0.1053
     24 Cl1         7.6665   -5.7496    8.2937 Cl        1 <0>        -0.0777
     25 C22         3.7118   -0.6612   -0.0826 C.2       1 <0>         0.4531
     26 O2          4.7459   -0.0481   -0.2630 O.2       1 <0>        -0.4652
     27 O3          0.1162   -2.6533   -0.8464 O.3       1 <0>        -0.8545
     28 H2         -0.9607    1.9008    0.0260 H         1 <0>         0.1173
     29 H3          1.1486    3.1721    0.0148 H         1 <0>         0.1177
     30 H4          3.2984    1.9786   -0.0326 H         1 <0>         0.1223
     31 H5         -0.9289   -0.5515    0.0060 H         1 <0>         0.1329
     32 H6          3.6536   -4.6805    0.5677 H         1 <0>         0.0876
     33 H7          5.3900   -4.7938    0.1774 H         1 <0>         0.0857
     34 H8          4.1666   -4.2905    2.9302 H         1 <0>         0.0689
     35 H9          5.0089   -5.7653    2.3963 H         1 <0>         0.0710
     36 H10         7.0735   -4.4070    2.0110 H         1 <0>         0.0834
     37 H11         5.3831   -2.1972    3.2630 H         1 <0>         0.0676
     38 H12         7.1378   -2.1015    2.9787 H         1 <0>         0.0691
     39 H13         6.8031   -2.3674    0.5574 H         1 <0>         0.0849
     40 H14         5.7815   -1.0268    1.1400 H         1 <0>         0.0956
     41 H15         4.8811   -3.6194    4.9503 H         1 <0>         0.1335
     42 H16         5.4420   -4.3102    7.2460 H         1 <0>         0.1322
     43 H17         9.0290   -6.1290    5.8204 H         1 <0>         0.1310
     44 H18         8.4611   -5.4466    3.5239 H         1 <0>         0.1313
@<TRIPOS>BOND
     1    1    6 ar
     2    1    2 ar
     3    1   28 1
     4    2    3 ar
     5    2   29 1
     6    3    4 ar
     7    3   30 1
     8    4   25 1
     9    4    5 ar
    10    5    6 ar
    11    5    7 1
    12    6   31 1
    13    7    8 1
    14    7    9 1
    15    7   27 1
    16    9   10 2
    17    9   11 1
    18   11   12 2
    19   11   25 1
    20   12   17 1
    21   12   13 1
    22   13   14 1
    23   13   32 1
    24   13   33 1
    25   14   15 1
    26   14   34 1
    27   14   35 1
    28   15   16 1
    29   15   18 1
    30   15   36 1
    31   16   17 1
    32   16   37 1
    33   16   38 1
    34   17   39 1
    35   17   40 1
    36   18   23 ar
    37   18   19 ar
    38   19   20 ar
    39   19   41 1
    40   20   21 ar
    41   20   42 1
    42   21   22 ar
    43   21   24 1
    44   22   23 ar
    45   22   43 1
    46   23   44 1
    47   25   26 2
@<TRIPOS>MOLECULE
ZINC18210358
   55    58     0     0     0
SMALL
USER_CHARGES

@<TRIPOS>ATOM
      1 C1         -0.8268    1.5280    0.1318 C.3       1 <0>        -0.1820
      2 C2         -1.2671    0.0628    0.1191 C.3       1 <0>         0.1753
      3 C3         -1.0481   -0.5121   -1.2555 C.ar      1 <0>        -0.0578
      4 C4         -1.0150    0.3190   -2.3554 C.ar      1 <0>        -0.1352
      5 C5         -0.8274   -0.2076   -3.6227 C.ar      1 <0>        -0.0823
      6 C6         -0.6741   -1.5688   -3.7997 C.ar      1 <0>        -0.1572
      7 C7         -0.6995   -2.4190   -2.7039 C.ar      1 <0>         0.1562
      8 C8         -0.8816   -1.8876   -1.4212 C.ar      1 <0>        -0.1606
      9 C9         -0.8789   -2.7723   -0.2390 C.2       1 <0>         0.4322
     10 O1         -0.9697   -3.9799   -0.3684 O.2       1 <0>        -0.4265
     11 C10        -0.7676   -2.1875    1.0575 C.2       1 <0>        -0.2407
     12 C11        -0.9499   -2.9656    2.1282 C.2       1 <0>         0.1838
     13 C12        -0.8471   -2.4810    3.5493 C.3       1 <0>         0.1199
     14 C13        -0.1262   -1.1326    3.5695 C.3       1 <0>        -0.0547
     15 H1          0.9065   -1.2963    3.2617 H         1 <0>         0.0816
     16 C14        -0.7804   -0.1976    2.5562 C.3       1 <0>        -0.1130
     17 C15        -0.4577   -0.7176    1.1525 C.3       1 <0>        -0.0110
     18 H2          0.6044   -0.5651    0.9611 H         1 <0>         0.0929
     19 C16        -0.1139   -0.5243    4.9582 C.3       1 <0>         0.0919
     20 H3          0.2524    0.5002    4.8920 H         1 <0>         0.0518
     21 C17        -1.4751   -0.5141    5.5865 C.2       1 <0>         0.3549
     22 C18        -2.4827   -1.3458    5.1654 C.2       1 <0>        -0.4966
     23 C19        -2.2577   -2.2679    4.0656 C.2       1 <0>         0.3929
     24 O2         -3.1962   -2.8445    3.5558 O.2       1 <0>        -0.5182
     25 C20        -3.7901   -1.3121    5.8399 C.2       1 <0>         0.5869
     26 O3         -3.9508   -0.6102    6.8202 O.2       1 <0>        -0.5679
     27 N1         -4.8095   -2.0590    5.3714 N.am      1 <0>        -0.8775
     28 O4         -1.7165    0.3366    6.5950 O.3       1 <0>        -0.6042
     29 N2          0.7963   -1.3010    5.8104 N.3       1 <0>        -0.5108
     30 C21         2.1855   -1.1734    5.3504 C.3       1 <0>         0.0263
     31 C22         0.6690   -0.9010    7.2182 C.3       1 <0>         0.0314
     32 O5         -0.1588   -3.4392    4.3555 O.3       1 <0>        -0.5015
     33 O6         -1.2444   -4.2649    1.9229 O.3       1 <0>        -0.4593
     34 O7         -0.5498   -3.7568   -2.8740 O.3       1 <0>        -0.4779
     35 O8         -2.6557   -0.0171    0.4468 O.3       1 <0>        -0.5308
     36 H4          0.2336    1.5909   -0.1126 H         1 <0>         0.0705
     37 H5         -1.4033    2.0870   -0.6053 H         1 <0>         0.0651
     38 H6         -0.9970    1.9500    1.1223 H         1 <0>         0.0785
     39 H7         -1.1360    1.3846   -2.2282 H         1 <0>         0.1350
     40 H8         -0.8013    0.4507   -4.4784 H         1 <0>         0.1305
     41 H9         -0.5346   -1.9716   -4.7921 H         1 <0>         0.1328
     42 H10        -1.8600   -0.1891    2.7065 H         1 <0>         0.0940
     43 H11        -0.3835    0.8105    2.6757 H         1 <0>         0.0803
     44 H12        -4.6598   -2.6815    4.6427 H         1 <0>         0.4015
     45 H13        -5.6929   -1.9741    5.7630 H         1 <0>         0.3734
     46 H14         2.5090   -0.1377    5.4543 H         1 <0>         0.0162
     47 H15         2.8279   -1.8167    5.9517 H         1 <0>         0.0640
     48 H16         2.2505   -1.4711    4.3039 H         1 <0>         0.0652
     49 H17        -0.3241   -1.1640    7.5823 H         1 <0>         0.0822
     50 H18         1.4225   -1.4181    7.8123 H         1 <0>         0.0522
     51 H19         0.8143    0.1758    7.3046 H         1 <0>         0.0257
     52 H20        -0.5457   -4.3251    4.3301 H         1 <0>         0.3673
     53 H21        -0.5634   -4.8765    2.2346 H         1 <0>         0.3892
     54 H22         0.3684   -4.0578   -2.8356 H         1 <0>         0.3909
     55 H23        -3.2323    0.4606   -0.1651 H         1 <0>         0.3734
@<TRIPOS>BOND
     1    1    2 1
     2    1   36 1
     3    1   37 1
     4    1   38 1
     5    2   17 1
     6    2    3 1
     7    2   35 1
     8    3    8 ar
     9    3    4 ar
    10    4    5 ar
    11    4   39 1
    12    5    6 ar
    13    5   40 1
    14    6    7 ar
    15    6   41 1
    16    7    8 ar
    17    7   34 1
    18    8    9 1
    19    9   10 2
    20    9   11 1
    21   11   17 1
    22   11   12 2
    23   12   13 1
    24   12   33 1
    25   13   23 1
    26   13   14 1
    27   13   32 1
    28   14   15 1
    29   14   16 1
    30   14   19 1
    31   16   17 1
    32   16   42 1
    33   16   43 1
    34   17   18 1
    35   19   20 1
    36   19   21 1
    37   19   29 1
    38   21   22 2
    39   21   28 1
    40   22   23 1
    41   22   25 1
    42   23   24 2
    43   25   26 2
    44   25   27 am
    45   27   44 1
    46   27   45 1
    47   29   30 1
    48   29   31 1
    49   30   46 1
    50   30   47 1
    51   30   48 1
    52   31   49 1
    53   31   50 1
    54   31   51 1
    55   32   52 1
    56   33   53 1
    57   34   54 1
    58   35   55 1
@<TRIPOS>MOLECULE
ZINC16052277
   57    60     0     0     0
SMALL
USER_CHARGES

@<TRIPOS>ATOM
      1 C1         -0.5412    0.3080   -1.1539 C.3       1 <0>        -0.1659
      2 C2         -0.1127   -1.1192   -0.8067 C.3       1 <0>        -0.0493
      3 H1         -1.0000   -1.7365   -0.6662 H         1 <0>         0.0745
      4 C3          0.7074   -1.6795   -1.9368 C.ar      1 <0>        -0.0325
      5 C4          0.5579   -1.1796   -3.2135 C.ar      1 <0>        -0.1378
      6 C5          1.2982   -1.7047   -4.2596 C.ar      1 <0>        -0.0661
      7 C6          2.1915   -2.7346   -4.0382 C.ar      1 <0>        -0.1540
      8 C7          2.3595   -3.2450   -2.7593 C.ar      1 <0>         0.1719
      9 C8          1.6187   -2.7089   -1.6990 C.ar      1 <0>        -0.1915
     10 C9          1.8153   -3.2056   -0.3225 C.2       1 <0>         0.4178
     11 C10         1.2884   -2.4453    0.7643 C.2       1 <0>        -0.2023
     12 C11         0.6987   -1.1005    0.4897 C.3       1 <0>        -0.0716
     13 H2          1.5277   -0.4094    0.3375 H         1 <0>         0.1169
     14 C12        -0.1453   -0.5286    1.6094 C.3       1 <0>         0.1218
     15 H3         -1.0842   -0.1682    1.1891 H         1 <0>         0.0566
     16 C13        -0.4576   -1.5302    2.7089 C.3       1 <0>        -0.0799
     17 H4         -0.9242   -1.0136    3.5476 H         1 <0>         0.1315
     18 C14        -1.4023   -2.6158    2.1915 C.3       1 <0>        -0.0115
     19 H5         -0.9371   -3.1343    1.3530 H         1 <0>         0.1690
     20 C15        -1.6802   -3.5987    3.3000 C.2       1 <0>         0.4256
     21 O1         -2.7368   -4.1969    3.3257 O.2       1 <0>        -0.4906
     22 C16        -0.7200   -3.8276    4.3084 C.2       1 <0>        -0.4493
     23 C17        -1.0038   -4.7346    5.3409 C.2       1 <0>         0.5715
     24 N1         -2.2373   -5.2771    5.4436 N.pl3     1 <0>        -0.8178
     25 O2         -0.0487   -5.0638    6.2278 O.3       1 <0>        -0.4101
     26 C18         0.5213   -3.1568    4.2934 C.2       1 <0>         0.3949
     27 O3          1.3300   -3.3598    5.1763 O.2       1 <0>        -0.4368
     28 C19         0.8464   -2.1925    3.1788 C.3       1 <0>         0.1258
     29 C20         1.3845   -2.9711    1.9999 C.2       1 <0>         0.1241
     30 O4          1.9556   -4.1781    2.1841 O.3       1 <0>        -0.4534
     31 O5          1.7823   -1.2087    3.6240 O.3       1 <0>        -0.4891
     32 N2         -2.6619   -2.0015    1.7510 N.4       1 <0>        -0.3718
     33 C21        -3.5049   -3.0191    1.1094 C.3       1 <0>        -0.0641
     34 C22        -3.3668   -1.4431    2.9126 C.3       1 <0>        -0.0662
     35 O6          0.5505    0.5780    2.1868 O.3       1 <0>        -0.5257
     36 O7          2.4156   -4.2454   -0.1183 O.2       1 <0>        -0.3998
     37 O8          3.2354   -4.2572   -2.5375 O.3       1 <0>        -0.4788
     38 H6          0.3435    0.9288   -1.2952 H         1 <0>         0.0770
     39 H7         -1.1283    0.2977   -2.0722 H         1 <0>         0.0788
     40 H8         -1.1441    0.7141   -0.3417 H         1 <0>         0.0623
     41 H9         -0.1394   -0.3758   -3.3983 H         1 <0>         0.1377
     42 H10         1.1757   -1.3063   -5.2559 H         1 <0>         0.1375
     43 H11         2.7593   -3.1428   -4.8612 H         1 <0>         0.1403
     44 H12        -2.3425   -6.1840    5.7714 H         1 <0>         0.4210
     45 H13        -3.0174   -4.7597    5.1896 H         1 <0>         0.4346
     46 H14        -0.3379   -5.6946    6.9013 H         1 <0>         0.4196
     47 H15         2.6225   -1.5758    3.9312 H         1 <0>         0.3945
     48 H16        -3.9235   -3.6771    1.8709 H         1 <0>         0.1524
     49 H17        -4.3142   -2.5309    0.5664 H         1 <0>         0.1283
     50 H18        -2.9026   -3.6046    0.4146 H         1 <0>         0.1199
     51 H19        -3.5144   -2.2244    3.6581 H         1 <0>         0.1293
     52 H20        -2.7740   -0.6366    3.3441 H         1 <0>         0.1261
     53 H21        -4.3349   -1.0539    2.5974 H         1 <0>         0.1365
     54 H22         0.7353    1.2945    1.5642 H         1 <0>         0.3895
     55 H23         4.1309   -3.9624   -2.3227 H         1 <0>         0.3982
     56 H24         2.7744   -4.1515    2.6978 H         1 <0>         0.4084
     57 H25        -2.4638   -1.2641    1.0913 H         1 <0>         0.4220
@<TRIPOS>BOND
     1    1    2 1
     2    1   38 1
     3    1   39 1
     4    1   40 1
     5    2    3 1
     6    2   12 1
     7    2    4 1
     8    4    9 ar
     9    4    5 ar
    10    5    6 ar
    11    5   41 1
    12    6    7 ar
    13    6   42 1
    14    7    8 ar
    15    7   43 1
    16    8    9 ar
    17    8   37 1
    18    9   10 1
    19   10   11 1
    20   10   36 2
    21   11   29 2
    22   11   12 1
    23   12   13 1
    24   12   14 1
    25   14   15 1
    26   14   16 1
    27   14   35 1
    28   16   17 1
    29   16   28 1
    30   16   18 1
    31   18   19 1
    32   18   20 1
    33   18   32 1
    34   20   21 2
    35   20   22 1
    36   22   23 2
    37   22   26 1
    38   23   24 1
    39   23   25 1
    40   24   44 1
    41   24   45 1
    42   25   46 1
    43   26   27 2
    44   26   28 1
    45   28   29 1
    46   28   31 1
    47   29   30 1
    48   30   56 1
    49   31   47 1
    50   32   33 1
    51   32   34 1
    52   32   57 1
    53   33   48 1
    54   33   49 1
    55   33   50 1
    56   34   51 1
    57   34   52 1
    58   34   53 1
    59   35   54 1
    60   37   55 1
@<TRIPOS>MOLECULE
ZINC19796155
   44    47     0     0     0
SMALL
USER_CHARGES

@<TRIPOS>ATOM
      1 C1         -1.5703   -0.0018   -1.9302 C.3       1 <0>        -0.0497
      2 N1         -0.7527   -0.7171   -0.9414 N.4       1 <0>        -0.3854
      3 C2         -1.0498   -2.1535   -1.0104 C.3       1 <0>        -0.0252
      4 C3         -0.2839   -2.8861    0.0962 C.3       1 <0>         0.1048
      5 N2          1.1441   -2.5548   -0.0269 N.pl3     1 <0>        -0.7052
      6 C4          1.5202   -1.1363   -0.1296 C.3       1 <0>         0.1049
      7 C5          0.6692   -0.4862   -1.2256 C.3       1 <0>        -0.0251
      8 C6          2.0831   -3.5253   -0.0448 C.2       1 <0>         0.6309
      9 C7          2.6112   -3.9094    1.2074 C.ar      1 <0>        -0.2438
     10 C8          2.0495   -3.1929    2.2728 C.ar      1 <0>         0.0055
     11 C9          2.4602   -3.4528    3.5483 C.ar      1 <0>        -0.1817
     12 C10         3.4265   -4.4148    3.8208 C.ar      1 <0>         0.0489
     13 C11         4.0101   -5.1439    2.8276 C.ar      1 <0>        -0.2233
     14 C12         3.6302   -4.9235    1.4921 C.ar      1 <0>         0.3343
     15 N3          4.2865   -5.7106    0.6358 N.pl3     1 <0>        -0.6131
     16 C13         4.1767   -5.7728   -0.7271 C.ar      1 <0>         0.1589
     17 C14         5.0408   -6.7320   -1.2562 C.ar      1 <0>        -0.1157
     18 C15         5.0795   -6.9478   -2.6222 C.ar      1 <0>        -0.0495
     19 C16         4.2642   -6.2154   -3.4643 C.ar      1 <0>        -0.0338
     20 C17         3.4016   -5.2585   -2.9468 C.ar      1 <0>        -0.0846
     21 C18         3.3520   -5.0321   -1.5848 C.ar      1 <0>         0.0769
     22 N4          2.4115   -4.0290   -1.2719 N.pl3     1 <0>        -0.5773
     23 Cl1         4.3195   -6.4929   -5.1771 Cl        1 <0>        -0.0159
     24 H1         -1.3348   -0.3678   -2.9295 H         1 <0>         0.1246
     25 H2         -2.6262   -0.1724   -1.7203 H         1 <0>         0.1321
     26 H3         -1.3566    1.0656   -1.8745 H         1 <0>         0.1321
     27 H4         -2.1201   -2.3101   -0.8766 H         1 <0>         0.1569
     28 H5         -0.7442   -2.5415   -1.9820 H         1 <0>         0.1344
     29 H6         -0.6518   -2.5648    1.0707 H         1 <0>         0.1155
     30 H7         -0.4211   -3.9618   -0.0138 H         1 <0>         0.1302
     31 H8          1.3345   -0.6383    0.8220 H         1 <0>         0.1155
     32 H9          2.5758   -1.0551   -0.3891 H         1 <0>         0.1302
     33 H10         0.9228   -0.9247   -2.1907 H         1 <0>         0.1344
     34 H11         0.8655    0.5856   -1.2504 H         1 <0>         0.1569
     35 H12         1.2975   -2.4405    2.0860 H         1 <0>         0.1502
     36 H13         2.0243   -2.8976    4.3657 H         1 <0>         0.1496
     37 H14         3.7223   -4.5886    4.8448 H         1 <0>         0.1558
     38 H15         4.7590   -5.8851    3.0650 H         1 <0>         0.1623
     39 H16         5.6790   -7.3052   -0.6001 H         1 <0>         0.1677
     40 H17         5.7487   -7.6901   -3.0316 H         1 <0>         0.1653
     41 H18         2.7675   -4.6896   -3.6107 H         1 <0>         0.1565
     42 H19         1.9393   -3.6432   -2.0263 H         1 <0>         0.4255
     43 H20         4.9278   -6.3202    1.0333 H         1 <0>         0.4372
     44 H21        -0.9695   -0.3754   -0.0171 H         1 <0>         0.4310
@<TRIPOS>BOND
     1    1    2 1
     2    1   24 1
     3    1   25 1
     4    1   26 1
     5    2    7 1
     6    2    3 1
     7    2   44 1
     8    3    4 1
     9    3   27 1
    10    3   28 1
    11    4    5 1
    12    4   29 1
    13    4   30 1
    14    5    6 1
    15    5    8 1
    16    6    7 1
    17    6   31 1
    18    6   32 1
    19    7   33 1
    20    7   34 1
    21    8   22 1
    22    8    9 2
    23    9   14 ar
    24    9   10 ar
    25   10   11 ar
    26   10   35 1
    27   11   12 ar
    28   11   36 1
    29   12   13 ar
    30   12   37 1
    31   13   14 ar
    32   13   38 1
    33   14   15 2
    34   15   16 1
    35   15   43 1
    36   16   21 ar
    37   16   17 ar
    38   17   18 ar
    39   17   39 1
    40   18   19 ar
    41   18   40 1
    42   19   20 ar
    43   19   23 1
    44   20   21 ar
    45   20   41 1
    46   21   22 1
    47   22   42 1
@<TRIPOS>MOLECULE
ZINC19795961
   53    56     0     0     0
SMALL
USER_CHARGES

@<TRIPOS>ATOM
      1 C1          0.8722   -0.4066    1.0549 C.3       1 <0>        -0.0618
      2 N1          0.4558   -0.0736   -0.3139 N.4       1 <0>        -0.3591
      3 C2          1.3070   -0.7906   -1.2728 C.3       1 <0>        -0.0643
      4 C3         -0.9448   -0.4709   -0.5100 C.3       1 <0>        -0.0070
      5 H1         -1.5633   -0.0205    0.2664 H         1 <0>         0.1891
      6 C4         -1.4229    0.0023   -1.8832 C.3       1 <0>        -0.0676
      7 H2         -0.8014   -0.4475   -2.6574 H         1 <0>         0.0948
      8 C5         -1.3395    1.5159   -1.9858 C.3       1 <0>        -0.0983
      9 C6         -2.3528    2.2422   -1.1281 C.3       1 <0>         0.0143
     10 H3         -2.8763    2.9422   -1.7793 H         1 <0>         0.0669
     11 C7         -1.6339    3.0779   -0.0692 C.3       1 <0>         0.1527
     12 H4         -0.9766    3.7943   -0.5620 H         1 <0>         0.0715
     13 C8         -2.6270    3.8205    0.7833 C.ar      1 <0>        -0.0725
     14 C9         -2.3349    5.0884    1.2435 C.ar      1 <0>        -0.0507
     15 C10        -3.2411    5.7656    2.0443 C.ar      1 <0>        -0.0899
     16 C11        -4.4431    5.1806    2.3913 C.ar      1 <0>        -0.1398
     17 C12        -4.7554    3.9097    1.9316 C.ar      1 <0>         0.1488
     18 C13        -3.8461    3.2279    1.1141 C.ar      1 <0>        -0.1227
     19 C14        -4.1792    1.8957    0.5719 C.2       1 <0>         0.4222
     20 C15        -3.3916    1.3766   -0.4945 C.2       1 <0>        -0.4657
     21 C16        -3.6549    0.1213   -0.9058 C.2       1 <0>         0.2750
     22 O1         -4.6066   -0.6125   -0.2953 O.3       1 <0>        -0.6038
     23 C17        -2.8818   -0.4361   -2.0818 C.3       1 <0>         0.1088
     24 C18        -2.9467   -1.9418   -2.0063 C.2       1 <0>         0.4219
     25 O2         -3.7804   -2.5450   -2.6513 O.2       1 <0>        -0.4922
     26 C19        -2.0412   -2.6509   -1.1889 C.2       1 <0>        -0.4463
     27 C20        -2.1200   -4.0504   -1.1215 C.2       1 <0>         0.5520
     28 N2         -2.9572   -4.7203   -1.9440 N.pl3     1 <0>        -0.8110
     29 O3         -1.3627   -4.7245   -0.2388 O.3       1 <0>        -0.4230
     30 C21        -1.0578   -1.9725   -0.4364 C.2       1 <0>         0.4235
     31 O4         -0.2976   -2.6013    0.2717 O.2       1 <0>        -0.4798
     32 O5         -3.3903    0.0437   -3.3282 O.3       1 <0>        -0.5240
     33 O6         -5.1017    1.2500    1.0360 O.2       1 <0>        -0.4559
     34 O7         -5.9344    3.3308    2.2724 O.3       1 <0>        -0.4739
     35 Cl1        -0.8274    5.8371    0.8185 Cl        1 <0>        -0.0734
     36 O8         -0.8530    2.2158    0.7610 O.3       1 <0>        -0.5717
     37 H5          1.8696   -0.0071    1.2386 H         1 <0>         0.1113
     38 H6          0.1696    0.0299    1.7647 H         1 <0>         0.1211
     39 H7          0.8865   -1.4896    1.1770 H         1 <0>         0.1490
     40 H8          1.2222   -1.8639   -1.1021 H         1 <0>         0.1256
     41 H9          0.9863   -0.5578   -2.2882 H         1 <0>         0.1185
     42 H10         2.3439   -0.4823   -1.1395 H         1 <0>         0.1218
     43 H11        -0.3400    1.8306   -1.6856 H         1 <0>         0.0514
     44 H12        -1.4940    1.8033   -3.0258 H         1 <0>         0.0914
     45 H13        -3.0054    6.7579    2.3997 H         1 <0>         0.1370
     46 H14        -5.1402    5.7129    3.0215 H         1 <0>         0.1396
     47 H15        -3.2179   -4.3305   -2.7931 H         1 <0>         0.4379
     48 H16        -3.2975   -5.5910   -1.6852 H         1 <0>         0.4109
     49 H17        -1.4857   -5.6833   -0.2664 H         1 <0>         0.4083
     50 H18        -4.3082   -0.2064   -3.5010 H         1 <0>         0.3952
     51 H19        -6.6559    3.5153    1.6555 H         1 <0>         0.3938
     52 H20        -0.2845    2.6830    1.3883 H         1 <0>         0.3759
     53 H21         0.5472    0.9204   -0.4609 H         1 <0>         0.4243
@<TRIPOS>BOND
     1    1    2 1
     2    1   37 1
     3    1   38 1
     4    1   39 1
     5    2    3 1
     6    2    4 1
     7    2   53 1
     8    3   40 1
     9    3   41 1
    10    3   42 1
    11    4    5 1
    12    4   30 1
    13    4    6 1
    14    6    7 1
    15    6   23 1
    16    6    8 1
    17    8    9 1
    18    8   43 1
    19    8   44 1
    20    9   10 1
    21    9   20 1
    22    9   11 1
    23   11   12 1
    24   11   13 1
    25   11   36 1
    26   13   18 ar
    27   13   14 ar
    28   14   15 ar
    29   14   35 1
    30   15   16 ar
    31   15   45 1
    32   16   17 ar
    33   16   46 1
    34   17   18 ar
    35   17   34 1
    36   18   19 1
    37   19   20 1
    38   19   33 2
    39   20   21 2
    40   21   22 1
    41   21   23 1
    42   23   24 1
    43   23   32 1
    44   24   25 2
    45   24   26 1
    46   26   27 2
    47   26   30 1
    48   27   28 1
    49   27   29 1
    50   28   47 1
    51   28   48 1
    52   29   49 1
    53   30   31 2
    54   32   50 1
    55   34   51 1
    56   36   52 1
@<TRIPOS>MOLECULE
ZINC14880004
   72    76     0     0     0
SMALL
USER_CHARGES

@<TRIPOS>ATOM
      1 C1          0.0182    1.7099    0.2381 C.3       1 <0>        -0.1857
      2 C2          0.0318    0.1813    0.1730 C.3       1 <0>         0.1815
      3 C3          0.7220   -0.2581   -1.0913 C.ar      1 <0>        -0.0678
      4 C4          0.7726    0.5857   -2.1807 C.ar      1 <0>        -0.1328
      5 C5          1.3946    0.1797   -3.3498 C.ar      1 <0>        -0.0724
      6 C6          1.9684   -1.0735   -3.4389 C.ar      1 <0>        -0.1502
      7 C7          1.9315   -1.9333   -2.3510 C.ar      1 <0>         0.1637
      8 C8          1.3095   -1.5217   -1.1658 C.ar      1 <0>        -0.1719
      9 C9          1.2882   -2.4095    0.0139 C.2       1 <0>         0.4276
     10 O1          1.5801   -3.5873   -0.0916 O.2       1 <0>        -0.4104
     11 C10         0.9203   -1.8633    1.2794 C.2       1 <0>        -0.2003
     12 C11         0.7228   -2.6981    2.3037 C.2       1 <0>         0.1492
     13 C12         0.3465   -2.2546    3.6916 C.3       1 <0>         0.1078
     14 C13         0.6253   -0.7578    3.8339 C.3       1 <0>        -0.0899
     15 H1          1.7038   -0.6081    3.7826 H         1 <0>         0.1092
     16 C14        -0.0127   -0.0142    2.6638 C.3       1 <0>        -0.1073
     17 C15         0.7650   -0.3705    1.3937 C.3       1 <0>        -0.0184
     18 H2          1.7529    0.0863    1.4515 H         1 <0>         0.1055
     19 C16         0.1371   -0.2206    5.1649 C.3       1 <0>         0.0363
     20 H3          0.1995    0.8675    5.1512 H         1 <0>         0.1510
     21 C17        -1.2777   -0.6226    5.4558 C.2       1 <0>         0.3185
     22 C18        -1.8768   -1.6927    4.8391 C.2       1 <0>        -0.4839
     23 C19        -1.1460   -2.4725    3.8552 C.2       1 <0>         0.3941
     24 O2         -1.7333   -3.2754    3.1597 O.2       1 <0>        -0.4814
     25 C20        -3.2592   -2.0584    5.1866 C.2       1 <0>         0.5901
     26 O3         -3.9075   -1.3477    5.9311 O.2       1 <0>        -0.5252
     27 N1         -3.8069   -3.1809    4.6801 N.am      1 <0>        -0.7453
     28 C21        -5.1437   -3.6009    5.1075 C.3       1 <0>         0.2263
     29 N2         -6.1424   -3.1022    4.1526 N.4       1 <0>        -0.4119
     30 C22        -6.0005   -3.8026    2.8505 C.3       1 <0>        -0.0060
     31 C23        -7.3899   -3.6115    2.1920 C.3       1 <0>        -0.1440
     32 C24        -8.3597   -3.7319    3.3898 C.3       1 <0>        -0.1430
     33 C25        -7.5065   -3.4140    4.6317 C.3       1 <0>        -0.0039
     34 O4         -1.9819    0.0873    6.3496 O.3       1 <0>        -0.5518
     35 N3          1.0053   -0.7336    6.2330 N.4       1 <0>        -0.3735
     36 C26         2.3607   -0.1928    6.0645 C.3       1 <0>        -0.0511
     37 C27         0.4722   -0.3208    7.5381 C.3       1 <0>        -0.0507
     38 O5          1.0714   -3.0033    4.6693 O.3       1 <0>        -0.5535
     39 O6          0.8694   -4.0192    2.0800 O.3       1 <0>        -0.4519
     40 O7          2.4935   -3.1654   -2.4349 O.3       1 <0>        -0.4776
     41 O8         -1.3122   -0.3042    0.1685 O.3       1 <0>        -0.5432
     42 H4          1.0426    2.0823    0.2471 H         1 <0>         0.0755
     43 H5         -0.5047    2.1060   -0.6324 H         1 <0>         0.0726
     44 H6         -0.4929    2.0304    1.1459 H         1 <0>         0.0750
     45 H7          0.3251    1.5669   -2.1222 H         1 <0>         0.1373
     46 H8          1.4309    0.8476   -4.1977 H         1 <0>         0.1368
     47 H9          2.4459   -1.3843   -4.3564 H         1 <0>         0.1393
     48 H10        -1.0533   -0.3205    2.5564 H         1 <0>         0.1010
     49 H11         0.0393    1.0605    2.8382 H         1 <0>         0.0976
     50 H12        -3.3160   -3.7106    4.0326 H         1 <0>         0.4210
     51 H13        -5.1881   -4.6894    5.1444 H         1 <0>         0.1359
     52 H14        -5.3530   -3.1951    6.0973 H         1 <0>         0.1425
     53 H15        -5.2213   -3.3377    2.2465 H         1 <0>         0.1318
     54 H16        -5.7898   -4.8609    3.0039 H         1 <0>         0.1304
     55 H17        -7.4663   -2.6266    1.7313 H         1 <0>         0.0953
     56 H18        -7.5812   -4.3965    1.4603 H         1 <0>         0.1140
     57 H19        -9.1712   -3.0106    3.2936 H         1 <0>         0.1031
     58 H20        -8.7582   -4.7445    3.4537 H         1 <0>         0.1025
     59 H21        -7.4786   -4.2790    5.2944 H         1 <0>         0.1293
     60 H22        -7.9213   -2.5537    5.1569 H         1 <0>         0.1309
     61 H23         2.3388    0.8893    6.1939 H         1 <0>         0.1215
     62 H24         3.0233   -0.6344    6.8089 H         1 <0>         0.1249
     63 H25         2.7257   -0.4320    5.0657 H         1 <0>         0.1202
     64 H26        -0.5335   -0.7221    7.6632 H         1 <0>         0.1360
     65 H27         1.1164   -0.7014    8.3307 H         1 <0>         0.1165
     66 H28         0.4380    0.7675    7.5889 H         1 <0>         0.1214
     67 H29         0.9131   -3.9566    4.6315 H         1 <0>         0.4071
     68 H30         1.6037   -4.4210    2.5641 H         1 <0>         0.3922
     69 H31         3.4237   -3.1921   -2.1721 H         1 <0>         0.3952
     70 H32        -1.8413    0.0096   -0.5776 H         1 <0>         0.3823
     71 H33        -6.0371   -2.1066    4.0266 H         1 <0>         0.4261
     72 H34         1.0369   -1.7410    6.1860 H         1 <0>         0.4290
@<TRIPOS>BOND
     1    1    2 1
     2    1   42 1
     3    1   43 1
     4    1   44 1
     5    2   17 1
     6    2    3 1
     7    2   41 1
     8    3    8 ar
     9    3    4 ar
    10    4    5 ar
    11    4   45 1
    12    5    6 ar
    13    5   46 1
    14    6    7 ar
    15    6   47 1
    16    7    8 ar
    17    7   40 1
    18    8    9 1
    19    9   10 2
    20    9   11 1
    21   11   17 1
    22   11   12 2
    23   12   13 1
    24   12   39 1
    25   13   23 1
    26   13   14 1
    27   13   38 1
    28   14   15 1
    29   14   16 1
    30   14   19 1
    31   16   17 1
    32   16   48 1
    33   16   49 1
    34   17   18 1
    35   19   20 1
    36   19   21 1
    37   19   35 1
    38   21   22 2
    39   21   34 1
    40   22   23 1
    41   22   25 1
    42   23   24 2
    43   25   26 2
    44   25   27 am
    45   27   28 1
    46   27   50 1
    47   28   29 1
    48   28   51 1
    49   28   52 1
    50   29   33 1
    51   29   30 1
    52   29   71 1
    53   30   31 1
    54   30   53 1
    55   30   54 1
    56   31   32 1
    57   31   55 1
    58   31   56 1
    59   32   33 1
    60   32   57 1
    61   32   58 1
    62   33   59 1
    63   33   60 1
    64   35   36 1
    65   35   37 1
    66   35   72 1
    67   36   61 1
    68   36   62 1
    69   36   63 1
    70   37   64 1
    71   37   65 1
    72   37   66 1
    73   38   67 1
    74   39   68 1
    75   40   69 1
    76   41   70 1
@<TRIPOS>MOLECULE
ZINC18153101
   39    40     0     0     0
SMALL
USER_CHARGES

@<TRIPOS>ATOM
      1 C1         -0.1512    1.4468   -0.4347 C.ar      1 <0>        -0.0589
      2 C2          1.0013    2.1989   -0.5283 C.ar      1 <0>        -0.1130
      3 C3          2.2401    1.5844   -0.4526 C.ar      1 <0>        -0.0208
      4 C4          2.3292    0.2129   -0.2828 C.ar      1 <0>        -0.1125
      5 C5          1.1831   -0.5488   -0.1881 C.ar      1 <0>        -0.0881
      6 C6         -0.0673    0.0650   -0.2636 C.ar      1 <0>        -0.0453
      7 C7         -1.3014   -0.7477   -0.1620 C.2       1 <0>         0.2520
      8 N1         -2.4606   -0.1615   -0.0506 N.2       1 <0>        -0.4813
      9 C8         -3.6902   -0.9571   -0.0864 C.3       1 <0>         0.0277
     10 C9         -4.4333   -0.8074    1.2426 C.3       1 <0>        -0.0968
     11 C10        -5.7175   -1.6383    1.2052 C.3       1 <0>        -0.1422
     12 C11        -6.4495   -1.4908    2.5142 C.2       1 <0>         0.5160
     13 O1         -5.9894   -0.7902    3.3907 O.2       1 <0>        -0.5405
     14 N2         -7.6155   -2.1376    2.7109 N.am      1 <0>        -0.8578
     15 C12        -1.2187   -2.2243   -0.1868 C.ar      1 <0>        -0.0997
     16 C13        -1.5718   -2.9655    0.9417 C.ar      1 <0>        -0.1162
     17 C14        -1.4925   -4.3435    0.9124 C.ar      1 <0>         0.0942
     18 C15        -1.0626   -4.9938   -0.2346 C.ar      1 <0>        -0.1242
     19 C16        -0.7109   -4.2695   -1.3567 C.ar      1 <0>        -0.1176
     20 C17        -0.7913   -2.8855   -1.3443 C.ar      1 <0>         0.1242
     21 O2         -0.4514   -2.1735   -2.4493 O.3       1 <0>        -0.4848
     22 F1         -1.8344   -5.0609    2.0049 F         1 <0>        -0.1325
     23 Cl1         3.6866    2.5369   -0.5717 Cl        1 <0>        -0.0638
     24 H1         -1.1168    1.9276   -0.4893 H         1 <0>         0.1459
     25 H2          0.9375    3.2688   -0.6611 H         1 <0>         0.1394
     26 H3          3.2978   -0.2612   -0.2249 H         1 <0>         0.1388
     27 H4          1.2538   -1.6183   -0.0560 H         1 <0>         0.1318
     28 H5         -4.3259   -0.6070   -0.8996 H         1 <0>         0.0945
     29 H6         -3.4399   -2.0058   -0.2466 H         1 <0>         0.0544
     30 H7         -3.7976   -1.1575    2.0558 H         1 <0>         0.0691
     31 H8         -4.6837    0.2413    1.4028 H         1 <0>         0.0828
     32 H9         -6.3533   -1.2882    0.3920 H         1 <0>         0.0985
     33 H10        -5.4672   -2.6870    1.0450 H         1 <0>         0.0946
     34 H11        -7.9835   -2.6980    2.0099 H         1 <0>         0.4020
     35 H12        -8.0866   -2.0427    3.5535 H         1 <0>         0.4025
     36 H13        -1.9063   -2.4619    1.8367 H         1 <0>         0.1417
     37 H14        -1.0023   -6.0720   -0.2504 H         1 <0>         0.1451
     38 H15        -0.3770   -4.7822   -2.2466 H         1 <0>         0.1461
     39 H16         0.4962   -1.9975   -2.5277 H         1 <0>         0.3943
@<TRIPOS>BOND
     1    1    6 ar
     2    1    2 ar
     3    1   24 1
     4    2    3 ar
     5    2   25 1
     6    3    4 ar
     7    3   23 1
     8    4    5 ar
     9    4   26 1
    10    5    6 ar
    11    5   27 1
    12    6    7 1
    13    7    8 2
    14    7   15 1
    15    8    9 1
    16    9   10 1
    17    9   28 1
    18    9   29 1
    19   10   11 1
    20   10   30 1
    21   10   31 1
    22   11   12 1
    23   11   32 1
    24   11   33 1
    25   12   13 2
    26   12   14 am
    27   14   34 1
    28   14   35 1
    29   15   20 ar
    30   15   16 ar
    31   16   17 ar
    32   16   36 1
    33   17   18 ar
    34   17   22 1
    35   18   19 ar
    36   18   37 1
    37   19   20 ar
    38   19   38 1
    39   20   21 1
    40   21   39 1
@<TRIPOS>MOLECULE
ZINC18210358
   56    59     0     0     0
SMALL
USER_CHARGES

@<TRIPOS>ATOM
      1 C1         -0.5221    1.1478   -0.7391 C.3       1 <0>        -0.1871
      2 C2         -0.3186   -0.3520   -0.5155 C.3       1 <0>         0.1824
      3 C3          0.3705   -0.9432   -1.7153 C.ar      1 <0>        -0.0745
      4 C4          0.2688   -0.3263   -2.9446 C.ar      1 <0>        -0.1385
      5 C5          0.8867   -0.8770   -4.0550 C.ar      1 <0>        -0.1005
      6 C6          1.6093   -2.0490   -3.9456 C.ar      1 <0>        -0.1525
      7 C7          1.7281   -2.6790   -2.7154 C.ar      1 <0>         0.1417
      8 C8          1.1114   -2.1187   -1.5901 C.ar      1 <0>        -0.1346
      9 C9          1.2628   -2.7477   -0.2630 C.2       1 <0>         0.4196
     10 C10         0.8936   -2.0027    0.8970 C.2       1 <0>        -0.4697
     11 C11         0.5189   -0.5643    0.7465 C.3       1 <0>         0.0241
     12 H1          1.4435   -0.0025    0.6142 H         1 <0>         0.0647
     13 C12        -0.1930    0.0426    1.9371 C.3       1 <0>        -0.1021
     14 C13        -0.6327   -0.9813    2.9705 C.3       1 <0>        -0.0677
     15 H2         -0.9884   -0.4658    3.8626 H         1 <0>         0.0927
     16 C14        -1.7522   -1.8599    2.4107 C.3       1 <0>        -0.0009
     17 H3         -1.3983   -2.3768    1.5187 H         1 <0>         0.1928
     18 C15        -2.1544   -2.8719    3.4531 C.2       1 <0>         0.4250
     19 O1         -3.2919   -3.2967    3.4746 O.2       1 <0>        -0.5125
     20 C16        -1.2171   -3.3288    4.4037 C.2       1 <0>        -0.4335
     21 C17        -1.6150   -4.2593    5.3758 C.2       1 <0>         0.5520
     22 N1         -2.9159   -4.6087    5.4843 N.pl3     1 <0>        -0.8282
     23 O2         -0.7020   -4.8033    6.1991 O.3       1 <0>        -0.4098
     24 C18         0.1150   -2.8633    4.3902 C.2       1 <0>         0.4086
     25 O3          0.9039   -3.2610    5.2234 O.2       1 <0>        -0.4544
     26 C19         0.5604   -1.8758    3.3394 C.3       1 <0>         0.1048
     27 C20         0.9373   -2.6333    2.0855 C.2       1 <0>         0.2753
     28 O4          1.3131   -3.9258    2.1575 O.3       1 <0>        -0.6061
     29 O5          1.6531   -1.0902    3.8199 O.3       1 <0>        -0.5287
     30 N2         -2.9085   -1.0219    2.0662 N.4       1 <0>        -0.3576
     31 C21        -3.8976   -1.8275    1.3378 C.3       1 <0>        -0.0560
     32 C22        -3.5156   -0.4957    3.2961 C.3       1 <0>        -0.0659
     33 O6          1.6944   -3.8819   -0.1601 O.2       1 <0>        -0.4597
     34 O7          2.4363   -3.8308   -2.6036 O.3       1 <0>        -0.4778
     35 O8         -1.5912   -0.9799   -0.3474 O.3       1 <0>        -0.5728
     36 H4          0.4470    1.6323   -0.8580 H         1 <0>         0.0762
     37 H5         -1.1188    1.3035   -1.6380 H         1 <0>         0.0647
     38 H6         -1.0397    1.5762    0.1192 H         1 <0>         0.0650
     39 H7         -0.2952    0.5896   -3.0418 H         1 <0>         0.1256
     40 H8          0.8026   -0.3866   -5.0135 H         1 <0>         0.1246
     41 H9          2.0817   -2.4753   -4.8182 H         1 <0>         0.1281
     42 H10         0.4765    0.7567    2.4168 H         1 <0>         0.0905
     43 H11        -1.0728    0.5787    1.5813 H         1 <0>         0.0533
     44 H12        -3.1555   -5.5108    5.7482 H         1 <0>         0.4132
     45 H13        -3.6102   -3.9573    5.2981 H         1 <0>         0.4305
     46 H14        -1.0706   -5.4325    6.8343 H         1 <0>         0.4078
     47 H15        -4.3216   -2.5753    2.0079 H         1 <0>         0.1417
     48 H16        -4.6919   -1.1797    0.9671 H         1 <0>         0.1116
     49 H17        -3.4131   -2.3253    0.4978 H         1 <0>         0.1236
     50 H18        -2.8080    0.1652    3.7966 H         1 <0>         0.1184
     51 H19        -4.4186    0.0613    3.0460 H         1 <0>         0.1222
     52 H20        -3.7708   -1.3231    3.9581 H         1 <0>         0.1242
     53 H21         3.3730   -3.6987   -2.4031 H         1 <0>         0.3906
     54 H22        -2.2089   -0.8175   -1.0734 H         1 <0>         0.3742
     55 H23        -2.6063   -0.2542    1.4852 H         1 <0>         0.4255
     56 H24         2.4315   -1.6082    4.0664 H         1 <0>         0.3957
@<TRIPOS>BOND
     1    1    2 1
     2    1   36 1
     3    1   37 1
     4    1   38 1
     5    2   11 1
     6    2    3 1
     7    2   35 1
     8    3    8 ar
     9    3    4 ar
    10    4    5 ar
    11    4   39 1
    12    5    6 ar
    13    5   40 1
    14    6    7 ar
    15    6   41 1
    16    7    8 ar
    17    7   34 1
    18    8    9 1
    19    9   10 1
    20    9   33 2
    21   10   27 2
    22   10   11 1
    23   11   12 1
    24   11   13 1
    25   13   14 1
    26   13   42 1
    27   13   43 1
    28   14   15 1
    29   14   26 1
    30   14   16 1
    31   16   17 1
    32   16   18 1
    33   16   30 1
    34   18   19 2
    35   18   20 1
    36   20   21 2
    37   20   24 1
    38   21   22 1
    39   21   23 1
    40   22   44 1
    41   22   45 1
    42   23   46 1
    43   24   25 2
    44   24   26 1
    45   26   27 1
    46   26   29 1
    47   27   28 1
    48   29   56 1
    49   30   31 1
    50   30   32 1
    51   30   55 1
    52   31   47 1
    53   31   48 1
    54   31   49 1
    55   32   50 1
    56   32   51 1
    57   32   52 1
    58   34   53 1
    59   35   54 1
@<TRIPOS>MOLECULE
ZINC02598638
   61    63     0     0     0
SMALL
USER_CHARGES

@<TRIPOS>ATOM
      1 C1          3.3861   -0.2023   -5.9883 C.3       1 <0>        -0.1491
      2 C2          2.9411   -1.3691   -5.1042 C.3       1 <0>         0.0596
      3 O1          3.0231   -2.5874   -5.8465 O.3       1 <0>        -0.3608
      4 C3          2.6649   -3.7138   -5.2104 C.2       1 <0>         0.4503
      5 O2          2.2939   -3.6669   -4.0615 O.2       1 <0>        -0.4632
      6 C4          2.7254   -5.0369   -5.9293 C.3       1 <0>         0.1059
      7 H1          2.0713   -5.0072   -6.8007 H         1 <0>         0.0829
      8 C5          4.1624   -5.3076   -6.3793 C.3       1 <0>        -0.1114
      9 C6          4.2022   -6.5879   -7.2160 C.3       1 <0>        -0.0851
     10 C7          5.6177   -6.8546   -7.6592 C.ar      1 <0>        -0.0780
     11 C8          6.0789   -6.3297   -8.8520 C.ar      1 <0>        -0.1169
     12 C9          7.3773   -6.5742   -9.2586 C.ar      1 <0>        -0.1215
     13 C10         8.2146   -7.3433   -8.4722 C.ar      1 <0>        -0.1264
     14 C11         7.7536   -7.8674   -7.2790 C.ar      1 <0>        -0.1176
     15 C12         6.4566   -7.6193   -6.8703 C.ar      1 <0>        -0.1132
     16 N1          2.2861   -6.1068   -5.0236 N.3       1 <0>        -0.6441
     17 C13         0.8231   -6.2389   -5.0353 C.3       1 <0>         0.0743
     18 H2          0.3704   -5.2547   -5.1557 H         1 <0>         0.0920
     19 C14         0.4016   -7.1398   -6.1979 C.3       1 <0>        -0.1887
     20 C15         0.3633   -6.8477   -3.7357 C.2       1 <0>         0.5029
     21 O3          1.1744   -7.1426   -2.8837 O.2       1 <0>        -0.4349
     22 N2         -0.9494   -7.0645   -3.5203 N.am      1 <0>        -0.6035
     23 C16        -1.9640   -6.6165   -4.4802 C.3       1 <0>         0.1510
     24 C17        -3.1107   -5.9716   -3.7430 C.ar      1 <0>        -0.0995
     25 C18        -4.0488   -5.2715   -4.4897 C.ar      1 <0>        -0.1158
     26 C19        -5.1257   -4.6684   -3.8735 C.ar      1 <0>        -0.1338
     27 C20        -5.2721   -4.7633   -2.5019 C.ar      1 <0>        -0.1211
     28 C21        -4.3388   -5.4551   -1.7587 C.ar      1 <0>        -0.1241
     29 C22        -3.2497   -6.0585   -2.3761 C.ar      1 <0>        -0.0477
     30 C23        -2.2570   -6.7735   -1.4977 C.3       1 <0>        -0.0852
     31 C24        -1.4218   -7.7659   -2.3151 C.3       1 <0>         0.0793
     32 H3         -2.0357   -8.6196   -2.6021 H         1 <0>         0.0623
     33 C25        -0.2422   -8.2352   -1.5030 C.2       1 <0>         0.5173
     34 O4          0.3710   -7.4449   -0.8059 O.co2     1 <0>        -0.6657
     35 O5          0.0989   -9.4050   -1.5431 O.co2     1 <0>        -0.7051
     36 H4          4.4148   -0.3626   -6.3109 H         1 <0>         0.0651
     37 H5          2.7369   -0.1400   -6.8617 H         1 <0>         0.0644
     38 H6          3.3235    0.7270   -5.4221 H         1 <0>         0.0766
     39 H7          3.5902   -1.4313   -4.2308 H         1 <0>         0.0664
     40 H8          1.9123   -1.2087   -4.7817 H         1 <0>         0.0649
     41 H9          4.5191   -4.4703   -6.9792 H         1 <0>         0.0866
     42 H10         4.8011   -5.4256   -5.5040 H         1 <0>         0.0838
     43 H11         3.8455   -7.4252   -6.6161 H         1 <0>         0.0782
     44 H12         3.5635   -6.4700   -8.0914 H         1 <0>         0.0767
     45 H13         5.4248   -5.7288   -9.4664 H         1 <0>         0.1209
     46 H14         7.7375   -6.1647  -10.1908 H         1 <0>         0.1193
     47 H15         9.2288   -7.5350   -8.7902 H         1 <0>         0.1187
     48 H16         8.4076   -8.4686   -6.6648 H         1 <0>         0.1215
     49 H17         6.0976   -8.0257   -5.9363 H         1 <0>         0.1261
     50 H18         0.8543   -8.1240   -6.0775 H         1 <0>         0.0687
     51 H19        -0.6839   -7.2378   -6.2066 H         1 <0>         0.0758
     52 H20         0.7342   -6.6994   -7.1379 H         1 <0>         0.0616
     53 H21        -1.5210   -5.8939   -5.1654 H         1 <0>         0.0839
     54 H22        -2.3319   -7.4729   -5.0453 H         1 <0>         0.0720
     55 H23        -3.9344   -5.1983   -5.5612 H         1 <0>         0.1185
     56 H24        -5.8515   -4.1247   -4.4600 H         1 <0>         0.1176
     57 H25        -6.1153   -4.2973   -2.0138 H         1 <0>         0.1174
     58 H26        -4.4550   -5.5282   -0.6875 H         1 <0>         0.1203
     59 H27        -1.5956   -6.0413   -1.0346 H         1 <0>         0.0939
     60 H28        -2.7930   -7.3150   -0.7182 H         1 <0>         0.0737
     61 H29         2.7301   -6.9825   -5.2563 H         1 <0>         0.3616
@<TRIPOS>BOND
     1    1    2 1
     2    1   36 1
     3    1   37 1
     4    1   38 1
     5    2    3 1
     6    2   39 1
     7    2   40 1
     8    3    4 1
     9    4    5 2
    10    4    6 1
    11    6    7 1
    12    6    8 1
    13    6   16 1
    14    8    9 1
    15    8   41 1
    16    8   42 1
    17    9   10 1
    18    9   43 1
    19    9   44 1
    20   10   15 ar
    21   10   11 ar
    22   11   12 ar
    23   11   45 1
    24   12   13 ar
    25   12   46 1
    26   13   14 ar
    27   13   47 1
    28   14   15 ar
    29   14   48 1
    30   15   49 1
    31   16   17 1
    32   16   61 1
    33   17   18 1
    34   17   19 1
    35   17   20 1
    36   19   50 1
    37   19   51 1
    38   19   52 1
    39   20   21 2
    40   20   22 am
    41   22   31 1
    42   22   23 1
    43   23   24 1
    44   23   53 1
    45   23   54 1
    46   24   29 ar
    47   24   25 ar
    48   25   26 ar
    49   25   55 1
    50   26   27 ar
    51   26   56 1
    52   27   28 ar
    53   27   57 1
    54   28   29 ar
    55   28   58 1
    56   29   30 1
    57   30   31 1
    58   30   59 1
    59   30   60 1
    60   31   32 1
    61   31   33 1
    62   33   34 2
    63   33   35 1
@<TRIPOS>MOLECULE
ZINC12504524
   70    72     0     0     0
SMALL
USER_CHARGES

@<TRIPOS>ATOM
      1 C1          1.5819    1.5229    0.7467 C.3       1 <0>        -0.1573
      2 C2          1.5993   -0.0069    0.7607 C.3       1 <0>         0.0601
      3 O1          1.6877   -0.4946   -0.5796 O.3       1 <0>        -0.3295
      4 C3          1.7137   -1.8267   -0.7429 C.2       1 <0>         0.4516
      5 O2          1.6630   -2.5545    0.2202 O.2       1 <0>        -0.4856
      6 C4          1.8060   -2.4144   -2.1275 C.3       1 <0>        -0.0037
      7 N1          1.8180   -3.8805   -2.0374 N.4       1 <0>        -0.4881
      8 C5          1.9080   -4.4534   -3.3871 C.3       1 <0>         0.0139
      9 H1          2.7781   -4.0423   -3.8990 H         1 <0>         0.1619
     10 C6          0.6424   -4.1065   -4.1738 C.3       1 <0>        -0.1042
     11 C7         -0.5647   -4.7849   -3.5229 C.3       1 <0>        -0.1337
     12 C8         -1.8302   -4.4381   -4.3096 C.3       1 <0>        -0.1177
     13 C9         -1.6852   -4.9292   -5.7514 C.3       1 <0>        -0.1270
     14 C10        -0.4781   -4.2508   -6.4022 C.3       1 <0>        -0.1187
     15 C11         0.7875   -4.5977   -5.6155 C.3       1 <0>        -0.1175
     16 C12         2.0439   -5.9511   -3.2891 C.2       1 <0>         0.5334
     17 O3          1.5607   -6.5435   -2.3475 O.2       1 <0>        -0.4787
     18 N2          2.7023   -6.6321   -4.2478 N.am      1 <0>        -0.6157
     19 C13         3.4797   -6.2872   -5.4476 C.3       1 <0>         0.0910
     20 C14         4.2477   -7.6032   -5.2621 C.3       1 <0>        -0.1393
     21 C15         2.9650   -8.0471   -4.5508 C.3       1 <0>         0.1169
     22 H2          2.2288   -8.4915   -5.2205 H         1 <0>         0.1286
     23 C16         3.2204   -8.8859   -3.3252 C.2       1 <0>         0.5033
     24 O4          3.1959   -8.3757   -2.2252 O.2       1 <0>        -0.5077
     25 N3          3.4761  -10.2032   -3.4514 N.am      1 <0>        -0.7197
     26 C17         3.7244  -11.0187   -2.2600 C.3       1 <0>         0.1634
     27 C18         3.9817  -12.4451   -2.6723 C.ar      1 <0>        -0.1002
     28 C19         2.9253  -13.3314   -2.7831 C.ar      1 <0>        -0.1039
     29 C20         3.1545  -14.6388   -3.1601 C.ar      1 <0>        -0.0695
     30 C21         4.4545  -15.0661   -3.4298 C.ar      1 <0>        -0.0836
     31 C22         5.5154  -14.1678   -3.3164 C.ar      1 <0>        -0.0961
     32 C23         5.2727  -12.8615   -2.9439 C.ar      1 <0>        -0.1044
     33 C24         4.7073  -16.4676   -3.8344 C.2       1 <0>         0.4113
     34 N4          3.7733  -17.1521   -4.4266 N.2       1 <0>        -0.4165
     35 O5          2.5663  -16.5187   -4.8100 O.3       1 <0>        -0.4054
     36 N5          5.9382  -17.0497   -3.5823 N.pl3     1 <0>        -0.8308
     37 H3          2.4977    1.8924    0.2853 H         1 <0>         0.0723
     38 H4          0.7212    1.8713    0.1758 H         1 <0>         0.0723
     39 H5          1.5145    1.8949    1.7691 H         1 <0>         0.0921
     40 H6          2.4600   -0.3553    1.3316 H         1 <0>         0.0804
     41 H7          0.6835   -0.3765    1.2222 H         1 <0>         0.0804
     42 H8          0.9468   -2.0935   -2.7165 H         1 <0>         0.1773
     43 H9          2.7232   -2.0723   -2.6070 H         1 <0>         0.1791
     44 H10         2.6134   -4.1775   -1.4922 H         1 <0>         0.4411
     45 H11         0.4974   -3.0262   -4.1708 H         1 <0>         0.1099
     46 H12        -0.4197   -5.8652   -3.5259 H         1 <0>         0.0853
     47 H13        -0.6680   -4.4350   -2.4958 H         1 <0>         0.0601
     48 H14        -2.6902   -4.9214   -3.8459 H         1 <0>         0.0757
     49 H15        -1.9753   -3.3578   -4.3067 H         1 <0>         0.0689
     50 H16        -1.5402   -6.0095   -5.7544 H         1 <0>         0.0653
     51 H17        -2.5868   -4.6821   -6.3118 H         1 <0>         0.0739
     52 H18        -0.3747   -4.6007   -7.4294 H         1 <0>         0.0770
     53 H19        -0.6231   -3.1705   -6.3993 H         1 <0>         0.0701
     54 H20         1.6474   -4.1144   -6.0792 H         1 <0>         0.0793
     55 H21         0.9325   -5.6780   -5.6185 H         1 <0>         0.0765
     56 H22         2.8820   -6.2581   -6.3586 H         1 <0>         0.1067
     57 H23         4.1012   -5.4006   -5.3221 H         1 <0>         0.0924
     58 H24         4.4532   -8.1354   -6.1909 H         1 <0>         0.1139
     59 H25         5.1148   -7.5261   -4.6061 H         1 <0>         0.1069
     60 H26         3.4957  -10.6113   -4.3312 H         1 <0>         0.4044
     61 H27         4.5941  -10.6313   -1.7293 H         1 <0>         0.0798
     62 H28         2.8532  -10.9810   -1.6059 H         1 <0>         0.0800
     63 H29         1.9191  -12.9995   -2.5736 H         1 <0>         0.1290
     64 H30         2.3290  -15.3299   -3.2459 H         1 <0>         0.1470
     65 H31         6.5242  -14.4929   -3.5236 H         1 <0>         0.1298
     66 H32         6.0928  -12.1637   -2.8603 H         1 <0>         0.1291
     67 H33         1.9333  -17.1078   -5.2429 H         1 <0>         0.3990
     68 H34         6.6348  -16.5392   -3.1407 H         1 <0>         0.4122
     69 H35         6.1038  -17.9679   -3.8474 H         1 <0>         0.4106
     70 H36         0.9689   -4.1971   -1.5936 H         1 <0>         0.4412
@<TRIPOS>BOND
     1    1    2 1
     2    1   37 1
     3    1   38 1
     4    1   39 1
     5    2    3 1
     6    2   40 1
     7    2   41 1
     8    3    4 1
     9    4    5 2
    10    4    6 1
    11    6    7 1
    12    6   42 1
    13    6   43 1
    14    7    8 1
    15    7   44 1
    16    7   70 1
    17    8    9 1
    18    8   10 1
    19    8   16 1
    20   10   15 1
    21   10   11 1
    22   10   45 1
    23   11   12 1
    24   11   46 1
    25   11   47 1
    26   12   13 1
    27   12   48 1
    28   12   49 1
    29   13   14 1
    30   13   50 1
    31   13   51 1
    32   14   15 1
    33   14   52 1
    34   14   53 1
    35   15   54 1
    36   15   55 1
    37   16   17 2
    38   16   18 am
    39   18   21 1
    40   18   19 1
    41   19   20 1
    42   19   56 1
    43   19   57 1
    44   20   21 1
    45   20   58 1
    46   20   59 1
    47   21   22 1
    48   21   23 1
    49   23   24 2
    50   23   25 am
    51   25   26 1
    52   25   60 1
    53   26   27 1
    54   26   61 1
    55   26   62 1
    56   27   32 ar
    57   27   28 ar
    58   28   29 ar
    59   28   63 1
    60   29   30 ar
    61   29   64 1
    62   30   31 ar
    63   30   33 1
    64   31   32 ar
    65   31   65 1
    66   32   66 1
    67   33   34 2
    68   33   36 1
    69   34   35 1
    70   35   67 1
    71   36   68 1
    72   36   69 1
@<TRIPOS>MOLECULE
ZINC00049154
   24    24     0     0     0
SMALL
USER_CHARGES

@<TRIPOS>ATOM
      1 C1         -0.0127    1.0858    0.0080 C.3       1 <0>        -0.1390
      2 C2         -0.7416    1.5850   -1.2129 C.ar      1 <0>         0.1286
      3 C3         -2.1115    1.7950   -1.1564 C.ar      1 <0>         0.1320
      4 C4         -2.7717    2.2565   -2.2909 C.ar      1 <0>         0.0066
      5 C5         -2.0282    2.4885   -3.4366 C.ar      1 <0>        -0.0691
      6 C6         -0.6656    2.2557   -3.4156 C.ar      1 <0>         0.1431
      7 N1         -0.0697    1.8229   -2.3220 N.ar      1 <0>        -0.4264
      8 C7         -2.6970    2.9882   -4.6912 C.3       1 <0>         0.1122
      9 O1         -1.7196    3.1457   -5.7217 O.3       1 <0>        -0.5747
     10 C8         -4.2592    2.4977   -2.2739 C.3       1 <0>         0.0966
     11 O2         -4.5188    3.8448   -1.8740 O.3       1 <0>        -0.5617
     12 O3         -2.7992    1.5528   -0.0094 O.3       1 <0>        -0.4573
     13 H1          0.0021   -0.0041    0.0020 H         1 <0>         0.1195
     14 H2          1.0099    1.4631    0.0003 H         1 <0>         0.1009
     15 H3         -0.5229    1.4373    0.9048 H         1 <0>         0.1173
     16 H4         -0.0808    2.4344   -4.3058 H         1 <0>         0.2226
     17 H5         -3.4507    2.2692   -5.0122 H         1 <0>         0.0898
     18 H6         -3.1725    3.9485   -4.4917 H         1 <0>         0.0950
     19 H7         -2.0800    3.4653   -6.5601 H         1 <0>         0.4103
     20 H8         -4.6659    2.3299   -3.2712 H         1 <0>         0.0822
     21 H9         -4.7304    1.8123   -1.5694 H         1 <0>         0.0904
     22 H10        -5.4583    4.0711   -1.8408 H         1 <0>         0.4062
     23 H11         0.8885    1.6720   -2.3349 H         1 <0>         0.4541
     24 H12        -2.8599    2.3160    0.5814 H         1 <0>         0.4210
@<TRIPOS>BOND
     1    1   13 1
     2    1   14 1
     3    1   15 1
     4    1    2 1
     5    2    3 ar
     6    2    7 ar
     7    3   12 1
     8    3    4 ar
     9    4    5 ar
    10    4   10 1
    11    5    6 ar
    12    5    8 1
    13    6    7 ar
    14    6   16 1
    15    7   23 1
    16    8    9 1
    17    8   17 1
    18    8   18 1
    19    9   19 1
    20   10   11 1
    21   10   20 1
    22   10   21 1
    23   11   22 1
    24   12   24 1
@<TRIPOS>MOLECULE
ZINC19594557
   55    58     0     0     0
SMALL
USER_CHARGES

@<TRIPOS>ATOM
      1 C1         -0.0184    1.5028    0.0103 C.3       1 <0>        -0.1159
      2 C2          0.0021   -0.0041    0.0020 C.ar      1 <0>        -0.0863
      3 C3          0.0057   -0.6888   -1.1991 C.ar      1 <0>        -0.1207
      4 C4          0.0245   -2.0707   -1.2067 C.ar      1 <0>        -0.1161
      5 C5          0.0400   -2.7685   -0.0132 C.ar      1 <0>        -0.1207
      6 C6          0.0373   -2.0840    1.1875 C.ar      1 <0>        -0.0745
      7 C7          0.0229   -0.7015    1.1951 C.ar      1 <0>        -0.0991
      8 C8          0.0538   -2.8445    2.4885 C.3       1 <0>         0.0948
      9 N1          1.4440   -3.0737    2.9041 N.3       1 <0>        -0.5336
     10 C9          2.1320   -3.9736    1.9680 C.3       1 <0>         0.0565
     11 C10         3.5954   -4.1232    2.3906 C.3       1 <0>         0.0575
     12 N2          3.6553   -4.6484    3.7618 N.3       1 <0>        -0.5285
     13 C11         2.9673   -3.7484    4.6979 C.3       1 <0>         0.0572
     14 C12         1.5039   -3.5989    4.2753 C.3       1 <0>         0.0592
     15 C13         5.0455   -4.8776    4.1774 C.3       1 <0>         0.1678
     16 H1          5.5960   -3.9376    4.1388 H         1 <0>         0.0601
     17 C14         5.0669   -5.4147    5.5853 C.ar      1 <0>        -0.0790
     18 C15         4.1275   -6.3475    5.9835 C.ar      1 <0>        -0.0906
     19 C16         4.1471   -6.8402    7.2748 C.ar      1 <0>        -0.1235
     20 C17         5.1063   -6.4006    8.1679 C.ar      1 <0>        -0.1172
     21 C18         6.0462   -5.4685    7.7695 C.ar      1 <0>        -0.1200
     22 C19         6.0292   -4.9790    6.4768 C.ar      1 <0>        -0.1120
     23 C20         5.6894   -5.8751    3.2493 C.ar      1 <0>        -0.0713
     24 C21         4.9693   -6.9668    2.8013 C.ar      1 <0>        -0.0772
     25 C22         5.5592   -7.8821    1.9501 C.ar      1 <0>        -0.1138
     26 C23         6.8707   -7.7055    1.5464 C.ar      1 <0>        -0.0328
     27 C24         7.5908   -6.6128    1.9951 C.ar      1 <0>        -0.1105
     28 C25         6.9980   -5.6952    2.8418 C.ar      1 <0>        -0.1002
     29 Cl1         7.6125   -8.8550    0.4777 Cl        1 <0>        -0.0709
     30 H2          1.0042    1.8801    0.0026 H         1 <0>         0.0704
     31 H3         -0.5455    1.8639   -0.8728 H         1 <0>         0.0660
     32 H4         -0.5286    1.8543    0.9071 H         1 <0>         0.0661
     33 H5         -0.0064   -0.1437   -2.1314 H         1 <0>         0.1203
     34 H6          0.0266   -2.6056   -2.1449 H         1 <0>         0.1213
     35 H7          0.0540   -3.8484   -0.0191 H         1 <0>         0.1174
     36 H8          0.0246   -0.1666    2.1333 H         1 <0>         0.1209
     37 H9         -0.4637   -2.2663    3.2539 H         1 <0>         0.0834
     38 H10        -0.4484   -3.8028    2.3555 H         1 <0>         0.0444
     39 H11         1.6482   -4.9503    1.9805 H         1 <0>         0.0420
     40 H12         2.0848   -3.5570    0.9618 H         1 <0>         0.0843
     41 H13         4.1005   -4.8131    1.7145 H         1 <0>         0.0824
     42 H14         4.0863   -3.1508    2.3518 H         1 <0>         0.0435
     43 H15         3.0145   -4.1651    5.7040 H         1 <0>         0.0859
     44 H16         3.4511   -2.7717    4.6854 H         1 <0>         0.0436
     45 H17         0.9989   -2.9090    4.9514 H         1 <0>         0.0802
     46 H18         1.0130   -4.5713    4.3140 H         1 <0>         0.0437
     47 H19         3.3782   -6.6910    5.2857 H         1 <0>         0.1287
     48 H20         3.4128   -7.5684    7.5861 H         1 <0>         0.1215
     49 H21         5.1211   -6.7850    9.1771 H         1 <0>         0.1207
     50 H22         6.7954   -5.1248    8.4673 H         1 <0>         0.1218
     51 H23         6.7658   -4.2536    6.1644 H         1 <0>         0.1189
     52 H24         3.9456   -7.1048    3.1168 H         1 <0>         0.1386
     53 H25         4.9966   -8.7351    1.6004 H         1 <0>         0.1328
     54 H26         8.6147   -6.4746    1.6805 H         1 <0>         0.1333
     55 H27         7.5586   -4.8395    3.1883 H         1 <0>         0.1292
@<TRIPOS>BOND
     1    1    2 1
     2    1   30 1
     3    1   31 1
     4    1   32 1
     5    2    7 ar
     6    2    3 ar
     7    3    4 ar
     8    3   33 1
     9    4    5 ar
    10    4   34 1
    11    5    6 ar
    12    5   35 1
    13    6    7 ar
    14    6    8 1
    15    7   36 1
    16    8    9 1
    17    8   37 1
    18    8   38 1
    19    9   14 1
    20    9   10 1
    21   10   11 1
    22   10   39 1
    23   10   40 1
    24   11   12 1
    25   11   41 1
    26   11   42 1
    27   12   13 1
    28   12   15 1
    29   13   14 1
    30   13   43 1
    31   13   44 1
    32   14   45 1
    33   14   46 1
    34   15   16 1
    35   15   17 1
    36   15   23 1
    37   17   22 ar
    38   17   18 ar
    39   18   19 ar
    40   18   47 1
    41   19   20 ar
    42   19   48 1
    43   20   21 ar
    44   20   49 1
    45   21   22 ar
    46   21   50 1
    47   22   51 1
    48   23   28 ar
    49   23   24 ar
    50   24   25 ar
    51   24   52 1
    52   25   26 ar
    53   25   53 1
    54   26   27 ar
    55   26   29 1
    56   27   28 ar
    57   27   54 1
    58   28   55 1
@<TRIPOS>MOLECULE
ZINC19594557
   56    59     0     0     0
SMALL
USER_CHARGES

@<TRIPOS>ATOM
      1 C1         -0.0184    1.5028    0.0103 C.3       1 <0>        -0.1210
      2 C2          0.0021   -0.0041    0.0020 C.ar      1 <0>        -0.0792
      3 C3          0.0057   -0.6888   -1.1991 C.ar      1 <0>        -0.1118
      4 C4          0.0245   -2.0707   -1.2067 C.ar      1 <0>        -0.1127
      5 C5          0.0400   -2.7685   -0.0132 C.ar      1 <0>        -0.1257
      6 C6          0.0373   -2.0840    1.1875 C.ar      1 <0>        -0.0913
      7 C7          0.0229   -0.7015    1.1951 C.ar      1 <0>        -0.0963
      8 C8          0.0538   -2.8445    2.4885 C.3       1 <0>         0.0982
      9 N1          1.4440   -3.0737    2.9041 N.3       1 <0>        -0.5322
     10 C9          2.1314   -3.9756    1.9692 C.3       1 <0>         0.0234
     11 C10         3.5895   -4.1407    2.4032 C.3       1 <0>        -0.0040
     12 N2          3.6360   -4.6905    3.7645 N.4       1 <0>        -0.3842
     13 C11         2.9672   -3.7671    4.6905 C.3       1 <0>        -0.0031
     14 C12         1.5040   -3.5989    4.2755 C.3       1 <0>         0.0280
     15 C13         5.0358   -4.8658    4.1740 C.3       1 <0>         0.1345
     16 H1          5.5437   -3.9015    4.1539 H         1 <0>         0.1514
     17 C14         5.0839   -5.4299    5.5706 C.ar      1 <0>        -0.1336
     18 C15         4.1879   -6.4115    5.9507 C.ar      1 <0>        -0.1215
     19 C16         4.2320   -6.9290    7.2318 C.ar      1 <0>        -0.1023
     20 C17         5.1723   -6.4651    8.1326 C.ar      1 <0>        -0.0910
     21 C18         6.0689   -5.4841    7.7522 C.ar      1 <0>        -0.1031
     22 C19         6.0276   -4.9697    6.4698 C.ar      1 <0>        -0.0853
     23 C20         5.7218   -5.8145    3.2251 C.ar      1 <0>        -0.1288
     24 C21         5.0503   -6.9280    2.7557 C.ar      1 <0>        -0.1085
     25 C22         5.6788   -7.7986    1.8855 C.ar      1 <0>        -0.0952
     26 C23         6.9803   -7.5554    1.4841 C.ar      1 <0>        -0.0146
     27 C24         7.6519   -6.4409    1.9541 C.ar      1 <0>        -0.0958
     28 C25         7.0203   -5.5680    2.8199 C.ar      1 <0>        -0.0721
     29 Cl1         7.7707   -8.6487    0.3914 Cl        1 <0>        -0.0385
     30 H2          1.0042    1.8801    0.0026 H         1 <0>         0.0735
     31 H3         -0.5455    1.8639   -0.8728 H         1 <0>         0.0704
     32 H4         -0.5286    1.8543    0.9071 H         1 <0>         0.0689
     33 H5         -0.0064   -0.1437   -2.1314 H         1 <0>         0.1255
     34 H6          0.0266   -2.6056   -2.1449 H         1 <0>         0.1252
     35 H7          0.0540   -3.8484   -0.0191 H         1 <0>         0.1167
     36 H8          0.0246   -0.1666    2.1333 H         1 <0>         0.1233
     37 H9         -0.4637   -2.2663    3.2539 H         1 <0>         0.0968
     38 H10        -0.4484   -3.8028    2.3555 H         1 <0>         0.0554
     39 H11         1.6385   -4.9478    1.9729 H         1 <0>         0.0592
     40 H12         2.0965   -3.5537    0.9647 H         1 <0>         0.1286
     41 H13         4.0974   -4.8206    1.7193 H         1 <0>         0.1355
     42 H14         4.0857   -3.1704    2.3862 H         1 <0>         0.1403
     43 H15         3.0139   -4.1700    5.7023 H         1 <0>         0.1374
     44 H16         3.4666   -2.7987    4.6618 H         1 <0>         0.1402
     45 H17         1.0113   -2.9022    4.9536 H         1 <0>         0.1260
     46 H18         1.0007   -4.5649    4.3173 H         1 <0>         0.0599
     47 H19         3.4533   -6.7739    5.2469 H         1 <0>         0.1138
     48 H20         3.5315   -7.6954    7.5289 H         1 <0>         0.1355
     49 H21         5.2063   -6.8689    9.1337 H         1 <0>         0.1364
     50 H22         6.8033   -5.1214    8.4561 H         1 <0>         0.1380
     51 H23         6.7304   -4.2059    6.1714 H         1 <0>         0.1339
     52 H24         4.0344   -7.1179    3.0694 H         1 <0>         0.1233
     53 H25         5.1542   -8.6686    1.5191 H         1 <0>         0.1464
     54 H26         8.6679   -6.2507    1.6414 H         1 <0>         0.1488
     55 H27         7.5428   -4.6954    3.1832 H         1 <0>         0.1439
     56 H28         3.1664   -5.5834    3.7826 H         1 <0>         0.4131
@<TRIPOS>BOND
     1    1    2 1
     2    1   30 1
     3    1   31 1
     4    1   32 1
     5    2    7 ar
     6    2    3 ar
     7    3    4 ar
     8    3   33 1
     9    4    5 ar
    10    4   34 1
    11    5    6 ar
    12    5   35 1
    13    6    7 ar
    14    6    8 1
    15    7   36 1
    16    8    9 1
    17    8   37 1
    18    8   38 1
    19    9   14 1
    20    9   10 1
    21   10   11 1
    22   10   39 1
    23   10   40 1
    24   11   12 1
    25   11   41 1
    26   11   42 1
    27   12   13 1
    28   12   15 1
    29   12   56 1
    30   13   14 1
    31   13   43 1
    32   13   44 1
    33   14   45 1
    34   14   46 1
    35   15   16 1
    36   15   17 1
    37   15   23 1
    38   17   22 ar
    39   17   18 ar
    40   18   19 ar
    41   18   47 1
    42   19   20 ar
    43   19   48 1
    44   20   21 ar
    45   20   49 1
    46   21   22 ar
    47   21   50 1
    48   22   51 1
    49   23   28 ar
    50   23   24 ar
    51   24   25 ar
    52   24   52 1
    53   25   26 ar
    54   25   53 1
    55   26   27 ar
    56   26   29 1
    57   27   28 ar
    58   27   54 1
    59   28   55 1
@<TRIPOS>MOLECULE
ZINC03813042
   18    18     0     0     0
SMALL
USER_CHARGES

@<TRIPOS>ATOM
      1 C1         -0.0184    1.5028    0.0103 C.3       1 <0>        -0.1624
      2 C2          0.0021   -0.0041    0.0020 C.2       1 <0>         0.5010
      3 O1          0.0203   -0.6161    1.0490 O.2       1 <0>        -0.4698
      4 N1          0.0001   -0.6716   -1.1688 N.am      1 <0>        -0.6150
      5 C3          0.0189   -2.0622   -1.1765 C.2       1 <0>         0.2229
      6 N2          0.0342   -2.8992   -0.1578 N.2       1 <0>        -0.3133
      7 N3          0.0506   -4.1518   -0.3231 N.2       1 <0>        -0.1306
      8 C4          0.0525   -4.6369   -1.5486 C.2       1 <0>        -0.4261
      9 S1          0.0209   -3.1183   -2.4906 S.3       1 <0>         0.1375
     10 S2          0.0731   -6.3097   -2.1017 S.o2      1 <0>         2.6009
     11 O2         -1.2748   -6.7592   -2.0864 O.2       1 <0>        -1.0365
     12 O3          0.8728   -6.3393   -3.2760 O.2       1 <0>        -1.0415
     13 N4          0.8799   -7.1939   -0.9573 N.2       1 <0>        -1.3126
     14 H1          1.0042    1.8801    0.0026 H         1 <0>         0.1013
     15 H2         -0.5455    1.8639   -0.8728 H         1 <0>         0.0851
     16 H3         -0.5286    1.8543    0.9071 H         1 <0>         0.1022
     17 H4         -0.0145   -0.1822   -2.0061 H         1 <0>         0.4269
     18 H5          0.9999   -8.1489   -1.0779 H         1 <0>         0.3298
@<TRIPOS>BOND
     1    1    2 1
     2    1   14 1
     3    1   15 1
     4    1   16 1
     5    2    3 2
     6    2    4 am
     7    4    5 1
     8    4   17 1
     9    5    9 1
    10    5    6 2
    11    6    7 1
    12    7    8 2
    13    8    9 1
    14    8   10 1
    15   10   11 2
    16   10   12 2
    17   10   13 1
    18   13   18 1
@<TRIPOS>MOLECULE
ZINC00538578
   44    45     0     0     0
SMALL
USER_CHARGES
ethyl methyl 4-(2,3-dichlorophenyl)-2,6-dimethyl-1,4-dihydropyridine-3,5-dicarboxylate
@<TRIPOS>ATOM
      1 C1         -2.5289    5.6003    8.4097 C.3       1 <0>        -0.1512
      2 C2         -2.0115    4.2476    7.9167 C.3       1 <0>         0.0568
      3 O1         -2.6250    3.9301    6.6657 O.3       1 <0>        -0.3430
      4 C3         -2.2742    2.7609    6.0906 C.2       1 <0>         0.5299
      5 O2         -1.4687    2.0312    6.6378 O.2       1 <0>        -0.4922
      6 C4         -2.8428    2.3835    4.8519 C.2       1 <0>        -0.2347
      7 C5         -4.1178    1.9585    4.8159 C.2       1 <0>         0.1609
      8 N1         -4.6980    1.5837    3.6349 N.2       1 <0>        -0.5138
      9 C6         -3.9231    1.2913    2.5457 C.2       1 <0>         0.2373
     10 C7         -2.6384    1.6827    2.4897 C.3       1 <0>        -0.1378
     11 C8         -2.0086    2.4656    3.6068 C.3       1 <0>         0.0562
     12 H1         -1.0140    2.0677    3.8075 H         1 <0>         0.1200
     13 C9         -1.8913    3.9106    3.1952 C.ar      1 <0>        -0.0739
     14 C10        -3.0260    4.6325    2.8749 C.ar      1 <0>        -0.0730
     15 C11        -2.9193    5.9579    2.4978 C.ar      1 <0>        -0.0954
     16 C12        -1.6776    6.5631    2.4397 C.ar      1 <0>        -0.0905
     17 C13        -0.5414    5.8422    2.7591 C.ar      1 <0>        -0.0294
     18 C14        -0.6490    4.5161    3.1437 C.ar      1 <0>        -0.0255
     19 Cl1         0.7754    3.6123    3.5533 Cl        1 <0>        -0.0397
     20 Cl2         1.0181    6.6013    2.6851 Cl        1 <0>        -0.0434
     21 C15        -1.8628    1.3509    1.3548 C.2       1 <0>         0.5059
     22 O3         -1.0440    0.4529    1.4188 O.2       1 <0>        -0.4824
     23 O4         -2.0308    2.0298    0.2006 O.3       1 <0>        -0.3349
     24 C16        -1.2137    1.6412   -0.9055 C.3       1 <0>         0.0246
     25 C17        -4.5171    0.5210    1.3947 C.3       1 <0>        -0.1415
     26 C18        -4.9196    1.9003    6.0905 C.3       1 <0>        -0.1007
     27 H2         -2.0610    5.8424    9.3640 H         1 <0>         0.0806
     28 H3         -2.2842    6.3713    7.6790 H         1 <0>         0.0666
     29 H4         -3.6102    5.5511    8.5376 H         1 <0>         0.0673
     30 H5         -2.2562    3.4768    8.6474 H         1 <0>         0.0688
     31 H6         -0.9302    4.2968    7.7888 H         1 <0>         0.0683
     32 H7         -2.5148    0.7046    2.6573 H         1 <0>         0.1463
     33 H8         -3.9963    4.1605    2.9197 H         1 <0>         0.1355
     34 H9         -3.8063    6.5210    2.2480 H         1 <0>         0.1440
     35 H10        -1.5950    7.5987    2.1447 H         1 <0>         0.1464
     36 H11        -0.1633    1.7657   -0.6427 H         1 <0>         0.0665
     37 H12        -1.4490    2.2650   -1.7677 H         1 <0>         0.1095
     38 H13        -1.4059    0.5965   -1.1497 H         1 <0>         0.0669
     39 H14        -4.2841   -0.5379    1.5075 H         1 <0>         0.1001
     40 H15        -5.5986    0.6562    1.3866 H         1 <0>         0.1100
     41 H16        -4.0981    0.8873    0.4576 H         1 <0>         0.0915
     42 H17        -5.4411    2.7471    6.1952 H         1 <0>         0.0837
     43 H18        -5.6053    1.0539    6.0501 H         1 <0>         0.0887
     44 H19        -4.2455    1.7816    6.9387 H         1 <0>         0.0704
@<TRIPOS>BOND
     1    1    2 1
     2    1   27 1
     3    1   28 1
     4    1   29 1
     5    2    3 1
     6    2   30 1
     7    2   31 1
     8    3    4 1
     9    4    5 2
    10    4    6 1
    11    6   11 1
    12    6    7 2
    13    7   26 1
    14    7    8 1
    15    8    9 2
    16    9   25 1
    17    9   10 1
    18   10   11 1
    19   10   21 1
    20   10   32 1
    21   11   12 1
    22   11   13 1
    23   13   18 ar
    24   13   14 ar
    25   14   15 ar
    26   14   33 1
    27   15   16 ar
    28   15   34 1
    29   16   17 ar
    30   16   35 1
    31   17   18 ar
    32   17   20 1
    33   18   19 1
    34   21   22 2
    35   21   23 1
    36   23   24 1
    37   24   36 1
    38   24   37 1
    39   24   38 1
    40   25   39 1
    41   25   40 1
    42   25   41 1
    43   26   42 1
    44   26   43 1
    45   26   44 1
@<TRIPOS>MOLECULE
ZINC00538578
   44    45     0     0     0
SMALL
USER_CHARGES
ethyl methyl 4-(2,3-dichlorophenyl)-2,6-dimethyl-1,4-dihydropyridine-3,5-dicarboxylate
@<TRIPOS>ATOM
      1 C1         -2.5289    5.6003    8.4097 C.3       1 <0>        -0.1522
      2 C2         -2.0115    4.2476    7.9167 C.3       1 <0>         0.0586
      3 O1         -2.6250    3.9301    6.6657 O.3       1 <0>        -0.3446
      4 C3         -2.2742    2.7609    6.0906 C.2       1 <0>         0.5115
      5 O2         -1.4687    2.0312    6.6377 O.2       1 <0>        -0.4817
      6 C4         -2.8428    2.3835    4.8519 C.3       1 <0>        -0.1451
      7 C5         -4.1178    1.9585    4.8159 C.2       1 <0>         0.0154
      8 N1         -4.6962    1.5782    3.6357 N.2       1 <0>        -0.4836
      9 C6         -3.9197    1.2820    2.5488 C.2       1 <0>         0.1815
     10 C7         -2.6353    1.6744    2.4927 C.3       1 <0>        -0.1384
     11 C8         -2.0077    2.4626    3.6072 C.3       1 <0>         0.0237
     12 H1         -1.0129    2.0665    3.8108 H         1 <0>         0.1226
     13 C9         -1.8913    3.9060    3.1898 C.ar      1 <0>        -0.0959
     14 C10        -3.0263    4.6254    2.8650 C.ar      1 <0>        -0.0858
     15 C11        -2.9204    5.9493    2.4825 C.ar      1 <0>        -0.0897
     16 C12        -1.6792    6.5555    2.4233 C.ar      1 <0>        -0.0854
     17 C13        -0.5427    5.8371    2.7472 C.ar      1 <0>        -0.0278
     18 C14        -0.6494    4.5125    3.1372 C.ar      1 <0>        -0.0191
     19 Cl1         0.7754    3.6118    3.5523 Cl        1 <0>        -0.0331
     20 Cl2         1.0161    6.5973    2.6719 Cl        1 <0>        -0.0376
     21 C15        -1.8580    1.3385    1.3601 C.2       1 <0>         0.5073
     22 O3         -1.0384    0.4417    1.4289 O.2       1 <0>        -0.4838
     23 O4         -2.0253    2.0124    0.2029 O.3       1 <0>        -0.3366
     24 C16        -1.2064    1.6200   -0.9006 C.3       1 <0>         0.0246
     25 C17        -4.5115    0.5062    1.4003 C.3       1 <0>        -0.1301
     26 C18        -4.9196    1.9003    6.0905 C.2       1 <0>        -0.1614
     27 H2         -2.0610    5.8424    9.3640 H         1 <0>         0.0829
     28 H3         -2.2842    6.3713    7.6790 H         1 <0>         0.0667
     29 H4         -3.6102    5.5511    8.5376 H         1 <0>         0.0691
     30 H5         -2.2562    3.4768    8.6474 H         1 <0>         0.0725
     31 H6         -0.9302    4.2968    7.7888 H         1 <0>         0.0706
     32 H7         -3.2670    3.1810    4.4231 H         1 <0>         0.1402
     33 H8         -3.9962    4.1526    2.9106 H         1 <0>         0.1389
     34 H9         -3.8077    6.5105    2.2293 H         1 <0>         0.1479
     35 H10        -1.5973    7.5899    2.1241 H         1 <0>         0.1499
     36 H11        -0.1564    1.7467   -0.6370 H         1 <0>         0.0655
     37 H12        -1.4412    2.2400   -1.7657 H         1 <0>         0.1084
     38 H13        -1.3973    0.5741   -1.1406 H         1 <0>         0.0667
     39 H14        -4.2776   -0.5519    1.5178 H         1 <0>         0.0932
     40 H15        -5.5931    0.6404    1.3903 H         1 <0>         0.1039
     41 H16        -4.0917    0.8691    0.4621 H         1 <0>         0.0863
     42 H17        -2.5109    0.6971    2.6645 H         1 <0>         0.1464
     43 H18        -5.9805    1.9909    5.8569 H         1 <0>         0.1486
     44 H19        -4.2455    1.7816    6.9387 H         1 <0>         0.1291
@<TRIPOS>BOND
     1    1    2 1
     2    1   27 1
     3    1   28 1
     4    1   29 1
     5    2    3 1
     6    2   30 1
     7    2   31 1
     8    3    4 1
     9    4    5 2
    10    4    6 1
    11    6   11 1
    12    6    7 1
    13    6   32 1
    14    7    8 1
    15    7   26 2
    16    8    9 2
    17    9   25 1
    18    9   10 1
    19   10   11 1
    20   10   21 1
    21   10   42 1
    22   11   12 1
    23   11   13 1
    24   13   18 ar
    25   13   14 ar
    26   14   15 ar
    27   14   33 1
    28   15   16 ar
    29   15   34 1
    30   16   17 ar
    31   16   35 1
    32   17   18 ar
    33   17   20 1
    34   18   19 1
    35   21   22 2
    36   21   23 1
    37   23   24 1
    38   24   36 1
    39   24   37 1
    40   24   38 1
    41   25   39 1
    42   25   40 1
    43   25   41 1
    44   26   43 1
    45   26   44 1
@<TRIPOS>MOLECULE
ZINC00538580
   46    47     0     0     0
SMALL
USER_CHARGES
ethyl methyl 2,6-dimethyl-4-(3-nitrophenyl)-1,4-dihydropyridine-3,5-dicarboxylate
@<TRIPOS>ATOM
      1 C1          1.1873    3.7677    7.1452 C.3       1 <0>        -0.1528
      2 C2         -0.2934    3.4277    7.3259 C.3       1 <0>         0.0634
      3 O1         -0.8568    3.0668    6.0632 O.3       1 <0>        -0.3527
      4 C3         -2.1651    2.7360    6.0481 C.2       1 <0>         0.5138
      5 O2         -2.8092    2.7538    7.0804 O.2       1 <0>        -0.5061
      6 C4         -2.7875    2.3686    4.8327 C.2       1 <0>        -0.2589
      7 C5         -4.0914    2.0425    4.8339 C.2       1 <0>         0.2009
      8 N1         -4.7243    1.6790    3.6766 N.2       1 <0>        -0.5119
      9 C6         -3.9967    1.2931    2.5839 C.2       1 <0>         0.2434
     10 C7         -2.6889    1.5891    2.4883 C.3       1 <0>        -0.1248
     11 C8         -1.9773    2.3522    3.5692 C.3       1 <0>         0.0464
     12 H1         -1.0132    1.8828    3.7648 H         1 <0>         0.1279
     13 C9         -1.7536    3.7702    3.1105 C.ar      1 <0>        -0.0917
     14 C10        -2.8336    4.5706    2.7872 C.ar      1 <0>        -0.0717
     15 C11        -2.6286    5.8712    2.3668 C.ar      1 <0>        -0.1110
     16 C12        -1.3436    6.3719    2.2699 C.ar      1 <0>        -0.0495
     17 C13        -0.2639    5.5715    2.5927 C.ar      1 <0>        -0.0414
     18 C14        -0.4693    4.2724    3.0186 C.ar      1 <0>        -0.0162
     19 N2          1.1119    6.1075    2.4885 N.pl3     1 <0>         0.0271
     20 O3          1.2927    7.2536    2.1180 O.2       1 <0>        -0.1579
     21 O4          2.0634    5.4023    2.7730 O.3       1 <0>        -0.1502
     22 C15        -1.9672    1.1727    1.3456 C.2       1 <0>         0.4887
     23 O5         -2.5021    0.4647    0.5129 O.2       1 <0>        -0.4931
     24 O6         -0.6854    1.5604    1.1787 O.3       1 <0>        -0.3421
     25 C16        -0.0173    1.1027    0.0015 C.3       1 <0>         0.0325
     26 C17        -4.6697    0.5269    1.4745 C.3       1 <0>        -0.1183
     27 C18        -4.8668    2.0817    6.1254 C.3       1 <0>        -0.0917
     28 H2          1.6172    4.0429    8.1083 H         1 <0>         0.0805
     29 H3          1.7135    2.9000    6.7472 H         1 <0>         0.0688
     30 H4          1.2863    4.6024    6.4512 H         1 <0>         0.0640
     31 H5         -0.8195    4.2953    7.7239 H         1 <0>         0.0653
     32 H6         -0.3925    2.5929    8.0197 H         1 <0>         0.0686
     33 H7         -3.0616    2.2304    1.8176 H         1 <0>         0.1498
     34 H8         -3.8375    4.1796    2.8632 H         1 <0>         0.1338
     35 H9         -3.4723    6.4965    2.1145 H         1 <0>         0.1518
     36 H10        -1.1833    7.3882    1.9415 H         1 <0>         0.1573
     37 H11         0.3741    3.6485    3.2754 H         1 <0>         0.1608
     38 H12         0.0034    0.0129   -0.0041 H         1 <0>         0.0697
     39 H13         1.0032    1.4855   -0.0091 H         1 <0>         0.1103
     40 H14        -0.5487    1.4607   -0.8803 H         1 <0>         0.0648
     41 H15        -4.2389   -0.4723    1.4097 H         1 <0>         0.1132
     42 H16        -5.7371    0.4496    1.6817 H         1 <0>         0.0897
     43 H17        -4.5200    1.0490    0.5294 H         1 <0>         0.0945
     44 H18        -5.8143    1.8122    5.9536 H         1 <0>         0.0648
     45 H19        -4.4169    1.3927    6.8403 H         1 <0>         0.0962
     46 H20        -4.8447    3.0928    6.5320 H         1 <0>         0.0937
@<TRIPOS>BOND
     1    1    2 1
     2    1   28 1
     3    1   29 1
     4    1   30 1
     5    2    3 1
     6    2   31 1
     7    2   32 1
     8    3    4 1
     9    4    5 2
    10    4    6 1
    11    6   11 1
    12    6    7 2
    13    7   27 1
    14    7    8 1
    15    8    9 2
    16    9   26 1
    17    9   10 1
    18   10   11 1
    19   10   22 1
    20   10   33 1
    21   11   12 1
    22   11   13 1
    23   13   18 ar
    24   13   14 ar
    25   14   15 ar
    26   14   34 1
    27   15   16 ar
    28   15   35 1
    29   16   17 ar
    30   16   36 1
    31   17   18 ar
    32   17   19 1
    33   18   37 1
    34   19   20 2
    35   19   21 1
    36   22   23 2
    37   22   24 1
    38   24   25 1
    39   25   38 1
    40   25   39 1
    41   25   40 1
    42   26   41 1
    43   26   42 1
    44   26   43 1
    45   27   44 1
    46   27   45 1
    47   27   46 1
@<TRIPOS>MOLECULE
ZINC00538580
   46    47     0     0     0
SMALL
USER_CHARGES
ethyl methyl 2,6-dimethyl-4-(3-nitrophenyl)-1,4-dihydropyridine-3,5-dicarboxylate
@<TRIPOS>ATOM
      1 C1          1.1873    3.7677    7.1452 C.3       1 <0>        -0.1537
      2 C2         -0.2934    3.4277    7.3259 C.3       1 <0>         0.0615
      3 O1         -0.8568    3.0668    6.0632 O.3       1 <0>        -0.3483
      4 C3         -2.1651    2.7361    6.0481 C.2       1 <0>         0.5044
      5 O2         -2.8092    2.7538    7.0804 O.2       1 <0>        -0.4857
      6 C4         -2.7875    2.3686    4.8327 C.3       1 <0>        -0.1315
      7 C5         -4.0914    2.0425    4.8339 C.2       1 <0>        -0.0859
      8 N1         -4.7234    1.6755    3.6772 N.2       1 <0>        -0.4556
      9 C6         -3.9950    1.2846    2.5869 C.2       1 <0>         0.1347
     10 C7         -2.6868    1.5787    2.4916 C.3       1 <0>        -0.1075
     11 C8         -1.9755    2.3450    3.5705 C.3       1 <0>         0.0201
     12 H1         -1.0122    1.8752    3.7689 H         1 <0>         0.1342
     13 C9         -1.7496    3.7610    3.1068 C.ar      1 <0>        -0.1183
     14 C10        -2.8284    4.5614    2.7792 C.ar      1 <0>        -0.0828
     15 C11        -2.6213    5.8602    2.3542 C.ar      1 <0>        -0.1060
     16 C12        -1.3356    6.3591    2.2569 C.ar      1 <0>        -0.0439
     17 C13        -0.2572    5.5587    2.5840 C.ar      1 <0>        -0.0400
     18 C14        -0.4646    4.2614    3.0144 C.ar      1 <0>        -0.0088
     19 N2          1.1193    6.0927    2.4793 N.pl3     1 <0>         0.0259
     20 O3          1.3019    7.2372    2.1048 O.2       1 <0>        -0.1543
     21 O4          2.0697    5.3874    2.7676 O.3       1 <0>        -0.1469
     22 C15        -1.9642    1.1572    1.3513 C.2       1 <0>         0.4894
     23 O5         -2.4990    0.4467    0.5206 O.2       1 <0>        -0.4943
     24 O6         -0.6818    1.5428    1.1844 O.3       1 <0>        -0.3487
     25 C16        -0.0128    1.0799    0.0097 C.3       1 <0>         0.0334
     26 C17        -4.6677    0.5150    1.4795 C.3       1 <0>        -0.0977
     27 C18        -4.8668    2.0817    6.1254 C.2       1 <0>        -0.0526
     28 H2          1.6171    4.0429    8.1083 H         1 <0>         0.0830
     29 H3          1.7135    2.9000    6.7472 H         1 <0>         0.0707
     30 H4          1.2863    4.6024    6.4512 H         1 <0>         0.0648
     31 H5         -0.8195    4.2954    7.7239 H         1 <0>         0.0682
     32 H6         -0.3925    2.5929    8.0197 H         1 <0>         0.0731
     33 H7         -3.1579    3.1841    4.3879 H         1 <0>         0.1593
     34 H8         -3.8328    4.1719    2.8555 H         1 <0>         0.1401
     35 H9         -3.4640    6.4856    2.0986 H         1 <0>         0.1555
     36 H10        -1.1738    7.3740    1.9249 H         1 <0>         0.1606
     37 H11         0.3777    3.6375    3.2746 H         1 <0>         0.1647
     38 H12         0.0066   -0.0099    0.0082 H         1 <0>         0.0686
     39 H13         1.0081    1.4615   -0.0011 H         1 <0>         0.1081
     40 H14        -0.5428    1.4352   -0.8740 H         1 <0>         0.0632
     41 H15        -4.2379   -0.4849    1.4189 H         1 <0>         0.1019
     42 H16        -5.7354    0.4397    1.6858 H         1 <0>         0.0787
     43 H17        -4.5162    1.0334    0.5327 H         1 <0>         0.0782
     44 H18        -3.0579    2.2180    1.8181 H         1 <0>         0.1379
     45 H19        -5.2628    1.0894    6.3416 H         1 <0>         0.1419
     46 H20        -4.8447    3.0928    6.5320 H         1 <0>         0.1403
@<TRIPOS>BOND
     1    1    2 1
     2    1   28 1
     3    1   29 1
     4    1   30 1
     5    2    3 1
     6    2   31 1
     7    2   32 1
     8    3    4 1
     9    4    5 2
    10    4    6 1
    11    6   11 1
    12    6    7 1
    13    6   33 1
    14    7    8 1
    15    7   27 2
    16    8    9 2
    17    9   26 1
    18    9   10 1
    19   10   11 1
    20   10   22 1
    21   10   44 1
    22   11   12 1
    23   11   13 1
    24   13   18 ar
    25   13   14 ar
    26   14   15 ar
    27   14   34 1
    28   15   16 ar
    29   15   35 1
    30   16   17 ar
    31   16   36 1
    32   17   18 ar
    33   17   19 1
    34   18   37 1
    35   19   20 2
    36   19   21 1
    37   22   23 2
    38   22   24 1
    39   24   25 1
    40   25   38 1
    41   25   39 1
    42   25   40 1
    43   26   41 1
    44   26   42 1
    45   26   43 1
    46   27   45 1
    47   27   46 1
@<TRIPOS>MOLECULE
ZINC00896773
   65    67     0     0     0
SMALL
USER_CHARGES
2-(benzyl-methyl-amino)ethyl methyl 2,6-dimethyl-4-(3-nitrophenyl)-1,4-dihydropyridine-3,5-dicarboxylate
@<TRIPOS>ATOM
      1 C1         -3.5100    2.2372   -0.8186 C.2       1 <0>        -0.0941
      2 C2         -2.0345    2.1661   -0.5207 C.2       1 <0>        -0.0238
      3 C3         -1.2948    3.2837   -0.5850 C.3       1 <0>        -0.1176
      4 C4          0.1766    3.2655   -0.2899 C.3       1 <0>         0.0314
      5 H1          0.7048    3.8676   -1.0293 H         1 <0>         0.1199
      6 C5          0.7106    1.8617   -0.3224 C.3       1 <0>        -0.1255
      7 C6         -0.1109    0.7968   -0.2821 C.2       1 <0>         0.1481
      8 N1         -1.4669    0.9628   -0.2080 N.2       1 <0>        -0.4406
      9 C7          0.4678   -0.5942   -0.3188 C.3       1 <0>        -0.1188
     10 C8          2.1073    1.6543   -0.4022 C.2       1 <0>         0.5021
     11 O1          2.6758    1.7465   -1.4742 O.2       1 <0>        -0.4465
     12 O2          2.8095    1.3545    0.7105 O.3       1 <0>        -0.3729
     13 C9          4.2295    1.2653    0.5771 C.3       1 <0>         0.0287
     14 C10         4.8577    1.0371    1.9534 C.3       1 <0>         0.0007
     15 C11         5.1086   -1.3684    1.8365 C.3       1 <0>        -0.0524
     16 C12         4.5772   -0.3076    3.9473 C.3       1 <0>         0.0477
     17 C13         3.8170   -1.4862    4.4989 C.ar      1 <0>        -0.1656
     18 C14         2.4712   -1.3655    4.7906 C.ar      1 <0>        -0.0966
     19 C15         1.7729   -2.4478    5.2924 C.ar      1 <0>        -0.1120
     20 C16         2.4225   -3.6483    5.5111 C.ar      1 <0>        -0.0818
     21 C17         3.7696   -3.7674    5.2244 C.ar      1 <0>        -0.1129
     22 C18         4.4668   -2.6863    4.7184 C.ar      1 <0>        -0.0923
     23 C19         0.4033    3.8510    1.0800 C.ar      1 <0>        -0.1104
     24 C20        -0.0996    3.2107    2.1974 C.ar      1 <0>        -0.0541
     25 C21         0.1125    3.7453    3.4543 C.ar      1 <0>        -0.1073
     26 C22         0.8186    4.9257    3.5933 C.ar      1 <0>        -0.0455
     27 C23         1.3170    5.5686    2.4757 C.ar      1 <0>        -0.0349
     28 C24         1.1094    5.0311    1.2190 C.ar      1 <0>        -0.0452
     29 N2          2.0726    6.8326    2.6246 N.pl3     1 <0>         0.0209
     30 O3          2.4288    7.4492    1.6364 O.2       1 <0>        -0.1502
     31 O4          2.3381    7.2563    3.7352 O.3       1 <0>        -0.1447
     32 C25        -1.9141    4.5060   -0.9347 C.2       1 <0>         0.5013
     33 O5         -1.7721    4.9617   -2.0540 O.2       1 <0>        -0.4852
     34 O6         -2.6629    5.1668   -0.0271 O.3       1 <0>        -0.3446
     35 C26        -3.2590    6.3952   -0.4488 C.3       1 <0>         0.0233
     36 H2          0.8808    1.5481    0.6118 H         1 <0>         0.1334
     37 H3         -3.8228    1.3243   -1.3252 H         1 <0>         0.1518
     38 H4         -3.9088    3.1845   -0.4556 H         1 <0>         0.1446
     39 H5         -0.9319    3.3904   -1.5108 H         1 <0>         0.1191
     40 H6          0.7408   -0.9009    0.6909 H         1 <0>         0.0821
     41 H7         -0.2730   -1.2854   -0.7207 H         1 <0>         0.1060
     42 H8          1.3542   -0.6023   -0.9531 H         1 <0>         0.0799
     43 H9          4.4811    0.4327   -0.0797 H         1 <0>         0.1027
     44 H10         4.6134    2.1925    0.1517 H         1 <0>         0.1218
     45 H11         5.9437    1.0334    1.8608 H         1 <0>         0.1591
     46 H12         4.5533    1.8365    2.6288 H         1 <0>         0.1417
     47 H13         6.1807   -1.2733    2.0084 H         1 <0>         0.1294
     48 H14         4.7563   -2.3126    2.2518 H         1 <0>         0.1262
     49 H15         4.9090   -1.3456    0.7653 H         1 <0>         0.1209
     50 H16         5.6353   -0.4137    4.1863 H         1 <0>         0.1403
     51 H17         4.1947    0.6115    4.3912 H         1 <0>         0.1355
     52 H18         1.9644   -0.4265    4.6231 H         1 <0>         0.1291
     53 H19         0.7204   -2.3548    5.5162 H         1 <0>         0.1366
     54 H20         1.8776   -4.4930    5.9057 H         1 <0>         0.1367
     55 H21         4.2772   -4.7052    5.3952 H         1 <0>         0.1369
     56 H22         5.5192   -2.7795    4.4944 H         1 <0>         0.1320
     57 H23        -0.6550    2.2910    2.0885 H         1 <0>         0.1410
     58 H24        -0.2772    3.2430    4.3274 H         1 <0>         0.1548
     59 H25         0.9805    5.3457    4.5750 H         1 <0>         0.1603
     60 H26         1.4985    5.5336    0.3459 H         1 <0>         0.1551
     61 H27        -3.8320    6.8224    0.3743 H         1 <0>         0.1085
     62 H28        -2.4781    7.0939   -0.7487 H         1 <0>         0.0652
     63 H29        -3.9216    6.2065   -1.2933 H         1 <0>         0.0690
     64 N3          4.3794   -0.2572    2.4833 N.4       1 <0>        -0.3992
     65 H30         3.3778   -0.3518    2.2787 H         1 <0>         0.4309
@<TRIPOS>BOND
     1    1   37 1
     2    1   38 1
     3    1    2 2
     4    2    3 1
     5    2    8 1
     6    3    4 1
     7    3   32 1
     8    3   39 1
     9    4    5 1
    10    4    6 1
    11    4   23 1
    12    6   10 1
    13    6    7 1
    14    6   36 1
    15    7    9 1
    16    7    8 2
    17    9   40 1
    18    9   41 1
    19    9   42 1
    20   10   11 2
    21   10   12 1
    22   12   13 1
    23   13   14 1
    24   13   43 1
    25   13   44 1
    26   14   45 1
    27   14   46 1
    28   14   64 1
    29   15   47 1
    30   15   48 1
    31   15   49 1
    32   15   64 1
    33   16   17 1
    34   16   50 1
    35   16   51 1
    36   16   64 1
    37   17   22 ar
    38   17   18 ar
    39   18   19 ar
    40   18   52 1
    41   19   20 ar
    42   19   53 1
    43   20   21 ar
    44   20   54 1
    45   21   22 ar
    46   21   55 1
    47   22   56 1
    48   23   28 ar
    49   23   24 ar
    50   24   25 ar
    51   24   57 1
    52   25   26 ar
    53   25   58 1
    54   26   27 ar
    55   26   59 1
    56   27   28 ar
    57   27   29 1
    58   28   60 1
    59   29   30 2
    60   29   31 1
    61   32   33 2
    62   32   34 1
    63   34   35 1
    64   35   61 1
    65   35   62 1
    66   35   63 1
    67   64   65 1
@<TRIPOS>MOLECULE
ZINC00896773
   65    67     0     0     0
SMALL
USER_CHARGES
2-(benzyl-methyl-amino)ethyl methyl 2,6-dimethyl-4-(3-nitrophenyl)-1,4-dihydropyridine-3,5-dicarboxylate
@<TRIPOS>ATOM
      1 C1         -3.5100    2.2372   -0.8186 C.2       1 <0>        -0.2630
      2 C2         -2.0345    2.1661   -0.5207 C.2       1 <0>         0.2946
      3 C3         -1.2948    3.2837   -0.5850 C.3       1 <0>        -0.1743
      4 C4          0.1803    3.2620   -0.3088 C.3       1 <0>         0.0572
      5 H1          0.7098    3.8507   -1.0580 H         1 <0>         0.1184
      6 C5          0.7098    1.8561   -0.3197 C.3       1 <0>        -0.2629
      7 C6         -0.1151    0.7946   -0.2620 C.2       1 <0>         0.1863
      8 N1         -1.4705    0.9661   -0.1895 N.2       1 <0>        -0.5344
      9 C7          0.4592   -0.5986   -0.2773 C.3       1 <0>        -0.1178
     10 C8          2.1057    1.6431   -0.3972 C.2       1 <0>         0.5450
     11 O1          2.6737    1.7166   -1.4709 O.2       1 <0>        -0.4693
     12 O2          2.8079    1.3585    0.7195 O.3       1 <0>        -0.3679
     13 C9          4.2274    1.2627    0.5865 C.3       1 <0>         0.0261
     14 C10         4.8561    1.0542    1.9658 C.3       1 <0>         0.0020
     15 C11         5.0992   -1.3536    1.8865 C.3       1 <0>        -0.0512
     16 C12         4.5728   -0.2581    3.9808 C.3       1 <0>         0.0480
     17 C13         3.8093   -1.4255    4.5514 C.ar      1 <0>        -0.1641
     18 C14         2.4642   -1.2959    4.8421 C.ar      1 <0>        -0.0959
     19 C15         1.7628   -2.3680    5.3614 C.ar      1 <0>        -0.1126
     20 C16         2.4088   -3.5669    5.5985 C.ar      1 <0>        -0.0828
     21 C17         3.7553   -3.6949    5.3127 C.ar      1 <0>        -0.1133
     22 C18         4.4555   -2.6241    4.7893 C.ar      1 <0>        -0.0925
     23 C19         0.4099    3.8682    1.0515 C.ar      1 <0>        -0.1250
     24 C20        -0.0941    3.2472    2.1792 C.ar      1 <0>        -0.0530
     25 C21         0.1206    3.8007    3.4274 C.ar      1 <0>        -0.1087
     26 C22         0.8305    4.9809    3.5473 C.ar      1 <0>        -0.0421
     27 C23         1.3301    5.6046    2.4194 C.ar      1 <0>        -0.0357
     28 C24         1.1198    5.0481    1.1715 C.ar      1 <0>        -0.0391
     29 N2          2.0898    6.8684    2.5479 N.pl3     1 <0>         0.0206
     30 O3          2.4472    7.4682    1.5498 O.2       1 <0>        -0.1476
     31 O4          2.3575    7.3086    3.6515 O.3       1 <0>        -0.1437
     32 C25        -1.9141    4.5060   -0.9347 C.2       1 <0>         0.4871
     33 O5         -1.7721    4.9617   -2.0540 O.2       1 <0>        -0.4586
     34 O6         -2.6629    5.1668   -0.0271 O.3       1 <0>        -0.3586
     35 C26        -3.2590    6.3952   -0.4488 C.3       1 <0>         0.0297
     36 H2         -4.1558    1.6979   -0.2781 H         1 <0>         0.1070
     37 H3         -3.8228    1.3243   -1.3252 H         1 <0>         0.1992
     38 H4         -3.9088    3.1845   -0.4556 H         1 <0>         0.1407
     39 H5         -1.2843    3.7285    0.3105 H         1 <0>         0.1679
     40 H6          0.7320   -0.8903    0.7369 H         1 <0>         0.0849
     41 H7         -0.2841   -1.2937   -0.6677 H         1 <0>         0.0956
     42 H8          1.3451   -0.6196   -0.9120 H         1 <0>         0.0742
     43 H9          4.4759    0.4191   -0.0573 H         1 <0>         0.0958
     44 H10         4.6140    2.1819    0.1463 H         1 <0>         0.1155
     45 H11         5.9420    1.0456    1.8725 H         1 <0>         0.1549
     46 H12         4.5546    1.8651    2.6288 H         1 <0>         0.1392
     47 H13         6.1717   -1.2592    2.0561 H         1 <0>         0.1282
     48 H14         4.7442   -2.2900    2.3169 H         1 <0>         0.1248
     49 H15         4.8988   -1.3470    0.8152 H         1 <0>         0.1205
     50 H16         5.6308   -0.3638    4.2206 H         1 <0>         0.1392
     51 H17         4.1936    0.6690    4.4105 H         1 <0>         0.1347
     52 H18         1.9602   -0.3580    4.6603 H         1 <0>         0.1292
     53 H19         0.7108   -2.2682    5.5845 H         1 <0>         0.1357
     54 H20         1.8615   -4.4036    6.0067 H         1 <0>         0.1361
     55 H21         4.2600   -4.6315    5.4978 H         1 <0>         0.1366
     56 H22         5.5075   -2.7241    4.5660 H         1 <0>         0.1319
     57 H23        -0.6526    2.3276    2.0852 H         1 <0>         0.1420
     58 H24        -0.2701    3.3135    4.3086 H         1 <0>         0.1559
     59 H25         0.9945    5.4158    4.5222 H         1 <0>         0.1616
     60 H26         1.5098    5.5356    0.2903 H         1 <0>         0.1582
     61 H27        -3.8320    6.8224    0.3743 H         1 <0>         0.1122
     62 H28        -2.4781    7.0939   -0.7487 H         1 <0>         0.0686
     63 H29        -3.9216    6.2065   -1.2933 H         1 <0>         0.0745
     64 N3          4.3741   -0.2300    2.5163 N.4       1 <0>        -0.3981
     65 H30         3.3719   -0.3247    2.3139 H         1 <0>         0.4325
@<TRIPOS>BOND
     1    1   37 1
     2    1   38 1
     3    1    2 2
     4    2    3 1
     5    2    8 1
     6    3    4 1
     7    3   32 1
     8    3   39 1
     9    4    5 1
    10    4    6 1
    11    4   23 1
    12    6   10 1
    13    6   36 1
    14    6    7 1
    15    7    9 1
    16    7    8 2
    17    9   40 1
    18    9   41 1
    19    9   42 1
    20   10   11 2
    21   10   12 1
    22   12   13 1
    23   13   14 1
    24   13   43 1
    25   13   44 1
    26   14   45 1
    27   14   46 1
    28   14   64 1
    29   15   47 1
    30   15   48 1
    31   15   49 1
    32   15   64 1
    33   16   17 1
    34   16   50 1
    35   16   51 1
    36   16   64 1
    37   17   22 ar
    38   17   18 ar
    39   18   19 ar
    40   18   52 1
    41   19   20 ar
    42   19   53 1
    43   20   21 ar
    44   20   54 1
    45   21   22 ar
    46   21   55 1
    47   22   56 1
    48   23   28 ar
    49   23   24 ar
    50   24   25 ar
    51   24   57 1
    52   25   26 ar
    53   25   58 1
    54   26   27 ar
    55   26   59 1
    56   27   28 ar
    57   27   29 1
    58   28   60 1
    59   29   30 2
    60   29   31 1
    61   32   33 2
    62   32   34 1
    63   34   35 1
    64   35   61 1
    65   35   62 1
    66   35   63 1
    67   64   65 1
@<TRIPOS>MOLECULE
ZINC00896773
   65    67     0     0     0
SMALL
USER_CHARGES
2-(benzyl-methyl-amino)ethyl methyl 2,6-dimethyl-4-(3-nitrophenyl)-1,4-dihydropyridine-3,5-dicarboxylate
@<TRIPOS>ATOM
      1 C1         -3.5100    2.2372   -0.8186 C.3       1 <0>        -0.1133
      2 C2         -2.0345    2.1661   -0.5207 C.2       1 <0>         0.1576
      3 C3         -1.2948    3.2837   -0.5850 C.2       1 <0>        -0.2200
      4 C4          0.1766    3.2655   -0.2899 C.3       1 <0>         0.0567
      5 H1          0.7048    3.8677   -1.0292 H         1 <0>         0.1256
      6 C5          0.7079    1.8658   -0.2824 C.3       1 <0>        -0.1233
      7 C6         -0.1133    0.8006   -0.2436 C.2       1 <0>         0.2104
      8 N1         -1.4703    0.9661   -0.1895 N.2       1 <0>        -0.4835
      9 C7          0.4668   -0.5902   -0.2600 C.3       1 <0>        -0.1305
     10 C8          2.1057    1.6589   -0.3413 C.2       1 <0>         0.4976
     11 O1          2.6886    1.7420   -1.4062 O.2       1 <0>        -0.4410
     12 O2          2.7929    1.3696    0.7835 O.3       1 <0>        -0.3739
     13 C9          4.2146    1.2805    0.6702 C.3       1 <0>         0.0289
     14 C10         4.8243    1.0651    2.0569 C.3       1 <0>         0.0004
     15 C11         5.0784   -1.3410    1.9650 C.3       1 <0>        -0.0526
     16 C12         4.5176   -0.2619    4.0588 C.3       1 <0>         0.0475
     17 C13         3.7508   -1.4361    4.6106 C.ar      1 <0>        -0.1657
     18 C14         2.4011   -1.3139    4.8828 C.ar      1 <0>        -0.0971
     19 C15         1.6968   -2.3923    5.3848 C.ar      1 <0>        -0.1122
     20 C16         2.3443   -3.5902    5.6231 C.ar      1 <0>        -0.0817
     21 C17         3.6952   -3.7108    5.3558 C.ar      1 <0>        -0.1127
     22 C18         4.3985   -2.6337    4.8497 C.ar      1 <0>        -0.0921
     23 C19         0.4033    3.8510    1.0801 C.ar      1 <0>        -0.1062
     24 C20        -0.0996    3.2106    2.1975 C.ar      1 <0>        -0.0593
     25 C21         0.1124    3.7451    3.4543 C.ar      1 <0>        -0.1068
     26 C22         0.8186    4.9255    3.5934 C.ar      1 <0>        -0.0448
     27 C23         1.3170    5.5685    2.4759 C.ar      1 <0>        -0.0343
     28 C24         1.1093    5.0311    1.2191 C.ar      1 <0>        -0.0404
     29 N2          2.0725    6.8325    2.6248 N.pl3     1 <0>         0.0206
     30 O3          2.4288    7.4491    1.6366 O.2       1 <0>        -0.1482
     31 O4          2.3381    7.2561    3.7354 O.3       1 <0>        -0.1445
     32 C25        -1.9134    4.5053   -0.9384 C.2       1 <0>         0.5199
     33 O5         -1.7686    4.9592   -2.0581 O.2       1 <0>        -0.4819
     34 O6         -2.6646    5.1675   -0.0338 O.3       1 <0>        -0.3480
     35 C26        -3.2598    6.3951   -0.4591 C.3       1 <0>         0.0279
     36 H2         -3.6543    2.1713   -1.8059 H         1 <0>         0.0813
     37 H3         -4.0213    1.4132   -0.3210 H         1 <0>         0.0943
     38 H4         -3.9088    3.1845   -0.4556 H         1 <0>         0.0852
     39 H5          0.8603    1.5722    0.6613 H         1 <0>         0.1361
     40 H6          0.7263   -0.8875    0.7560 H         1 <0>         0.0918
     41 H7         -0.2680   -1.2856   -0.6657 H         1 <0>         0.1130
     42 H8          1.3618   -0.6032   -0.8821 H         1 <0>         0.0862
     43 H9          4.4757    0.4422    0.0243 H         1 <0>         0.1034
     44 H10         4.6036    2.2042    0.2418 H         1 <0>         0.1228
     45 H11         5.9114    1.0616    1.9792 H         1 <0>         0.1597
     46 H12         4.5100    1.8703    2.7210 H         1 <0>         0.1420
     47 H13         6.1480   -1.2435    2.1507 H         1 <0>         0.1296
     48 H14         4.7212   -2.2818    2.3839 H         1 <0>         0.1263
     49 H15         4.8934   -1.3280    0.8910 H         1 <0>         0.1210
     50 H16         5.5724   -0.3649    4.3131 H         1 <0>         0.1405
     51 H17         4.1284    0.6608    4.4892 H         1 <0>         0.1357
     52 H18         1.8960   -0.3769    4.7000 H         1 <0>         0.1289
     53 H19         0.6413   -2.2982    5.5934 H         1 <0>         0.1365
     54 H20         1.7947   -4.4318    6.0178 H         1 <0>         0.1367
     55 H21         4.2011   -4.6466    5.5419 H         1 <0>         0.1370
     56 H22         5.4539   -2.7280    4.6409 H         1 <0>         0.1322
     57 H23        -0.6550    2.2909    2.0885 H         1 <0>         0.1376
     58 H24        -0.2773    3.2429    4.3274 H         1 <0>         0.1550
     59 H25         0.9805    5.3455    4.5751 H         1 <0>         0.1609
     60 H26         1.4984    5.5336    0.3460 H         1 <0>         0.1572
     61 H27        -3.8350    6.8236    0.3618 H         1 <0>         0.1073
     62 H28        -2.4782    7.0935   -0.7582 H         1 <0>         0.0640
     63 H29        -3.9202    6.2049   -1.3050 H         1 <0>         0.0671
     64 N3          4.3397   -0.2247    2.5919 N.4       1 <0>        -0.3992
     65 H30         3.3410   -0.3220    2.3745 H         1 <0>         0.4304
@<TRIPOS>BOND
     1    1    2 1
     2    1   36 1
     3    1   37 1
     4    1   38 1
     5    2    8 1
     6    2    3 2
     7    3    4 1
     8    3   32 1
     9    4    5 1
    10    4    6 1
    11    4   23 1
    12    6   10 1
    13    6   39 1
    14    6    7 1
    15    7    9 1
    16    7    8 2
    17    9   40 1
    18    9   41 1
    19    9   42 1
    20   10   11 2
    21   10   12 1
    22   12   13 1
    23   13   14 1
    24   13   43 1
    25   13   44 1
    26   14   45 1
    27   14   46 1
    28   14   64 1
    29   15   47 1
    30   15   48 1
    31   15   49 1
    32   15   64 1
    33   16   17 1
    34   16   50 1
    35   16   51 1
    36   16   64 1
    37   17   22 ar
    38   17   18 ar
    39   18   19 ar
    40   18   52 1
    41   19   20 ar
    42   19   53 1
    43   20   21 ar
    44   20   54 1
    45   21   22 ar
    46   21   55 1
    47   22   56 1
    48   23   28 ar
    49   23   24 ar
    50   24   25 ar
    51   24   57 1
    52   25   26 ar
    53   25   58 1
    54   26   27 ar
    55   26   59 1
    56   27   28 ar
    57   27   29 1
    58   28   60 1
    59   29   30 2
    60   29   31 1
    61   32   33 2
    62   32   34 1
    63   34   35 1
    64   35   61 1
    65   35   62 1
    66   35   63 1
    67   64   65 1
@<TRIPOS>MOLECULE
ZINC33971762
   42    44     0     0     0
SMALL
USER_CHARGES

@<TRIPOS>ATOM
      1 C1         -0.1882    1.7290    0.1955 C.3       1 <0>        -0.1392
      2 C2         -0.0702    0.2073    0.0878 C.3       1 <0>        -0.0229
      3 C3          0.7161   -0.2302   -1.1676 C.3       1 <0>        -0.1344
      4 C4          2.1268   -0.5350   -0.6041 C.3       1 <0>        -0.0013
      5 N1          1.8390   -1.1603    0.7115 N.4       1 <0>        -0.4135
      6 C5          0.6980   -0.4088    1.2788 C.3       1 <0>         0.2646
      7 H1          1.0394    0.3565    1.9759 H         1 <0>         0.1606
      8 N2         -0.2494   -1.3390    1.8987 N.pl3     1 <0>        -0.6268
      9 C6         -1.4512   -1.3519    1.1851 C.ar      1 <0>         0.1765
     10 C7         -1.4185   -0.4740    0.1132 C.ar      1 <0>        -0.1459
     11 C8         -2.5141   -0.3423   -0.7184 C.ar      1 <0>        -0.0416
     12 C9         -3.6592   -1.0890   -0.4850 C.ar      1 <0>         0.0843
     13 C10        -3.7001   -1.9683    0.5867 C.ar      1 <0>        -0.0559
     14 C11        -2.6072   -2.1000    1.4164 C.ar      1 <0>        -0.1358
     15 O1         -4.7376   -0.9593   -1.3035 O.3       1 <0>        -0.2266
     16 C12        -4.6383   -1.4352   -2.5634 C.2       1 <0>         0.5068
     17 N3         -3.5806   -2.0956   -2.9265 N.2       1 <0>        -0.6345
     18 C13        -3.4728   -2.6119   -4.2933 C.3       1 <0>         0.0224
     19 O2         -5.6388   -1.2245   -3.4457 O.3       1 <0>        -0.4909
     20 C14         0.0238   -2.1405    3.0942 C.3       1 <0>         0.0905
     21 C15         3.0087   -1.0454    1.5928 C.3       1 <0>        -0.0450
     22 H2          0.8083    2.1700    0.2180 H         1 <0>         0.0725
     23 H3         -0.7361    2.1127   -0.6652 H         1 <0>         0.0852
     24 H4         -0.7211    1.9882    1.1104 H         1 <0>         0.0759
     25 H5          0.2747   -1.1248   -1.6069 H         1 <0>         0.1057
     26 H6          0.7587    0.5784   -1.8973 H         1 <0>         0.1233
     27 H7          2.6581   -1.2312   -1.2530 H         1 <0>         0.1390
     28 H8          2.6971    0.3850   -0.4763 H         1 <0>         0.1379
     29 H9         -2.4788    0.3438   -1.5516 H         1 <0>         0.1344
     30 H10        -4.5905   -2.5508    0.7720 H         1 <0>         0.1460
     31 H11        -2.6452   -2.7858    2.2498 H         1 <0>         0.1374
     32 H12        -3.5212   -1.7831   -4.9996 H         1 <0>         0.0540
     33 H13        -2.5234   -3.1342   -4.4105 H         1 <0>         0.0911
     34 H14        -4.2937   -3.3025   -4.4866 H         1 <0>         0.0548
     35 H15        -5.4773   -1.6022   -4.3211 H         1 <0>         0.4255
     36 H16        -0.2674   -1.5795    3.9822 H         1 <0>         0.0730
     37 H17        -0.5461   -3.0685    3.0476 H         1 <0>         0.0899
     38 H18         1.0883   -2.3700    3.1423 H         1 <0>         0.0704
     39 H19         3.2642    0.0063    1.7221 H         1 <0>         0.1241
     40 H20         2.7772   -1.4850    2.5630 H         1 <0>         0.1183
     41 H21         3.8525   -1.5722    1.1472 H         1 <0>         0.1259
     42 H22         1.5894   -2.1301    0.5881 H         1 <0>         0.4242
@<TRIPOS>BOND
     1    1    2 1
     2    1   22 1
     3    1   23 1
     4    1   24 1
     5    2    6 1
     6    2   10 1
     7    2    3 1
     8    3    4 1
     9    3   25 1
    10    3   26 1
    11    4    5 1
    12    4   27 1
    13    4   28 1
    14    5    6 1
    15    5   21 1
    16    5   42 1
    17    6    7 1
    18    6    8 1
    19    8    9 1
    20    8   20 1
    21    9   14 ar
    22    9   10 ar
    23   10   11 ar
    24   11   12 ar
    25   11   29 1
    26   12   13 ar
    27   12   15 1
    28   13   14 ar
    29   13   30 1
    30   14   31 1
    31   15   16 1
    32   16   17 2
    33   16   19 1
    34   17   18 1
    35   18   32 1
    36   18   33 1
    37   18   34 1
    38   19   35 1
    39   20   36 1
    40   20   37 1
    41   20   38 1
    42   21   39 1
    43   21   40 1
    44   21   41 1
@<TRIPOS>MOLECULE
ZINC00896583
   48    50     0     0     0
SMALL
USER_CHARGES
isopropyl methyl 2,6-dimethyl-4-(8-oxa-7,9-diazabicyclo[4.3.0]nona-2,4,6,9-tetraen-5-yl)-1,4-dihydropyridine-3,5-dicarboxylate
@<TRIPOS>ATOM
      1 C1         -0.0183    1.5027    0.0089 C.2       1 <0>         0.0005
      2 C2          0.0022   -0.0042    0.0011 C.2       1 <0>        -0.0926
      3 C3         -1.1573   -0.6782    0.0300 C.3       1 <0>        -0.0757
      4 C4         -1.1892   -2.1796    0.0047 C.3       1 <0>         0.0269
      5 H1         -1.9279   -2.5334    0.7240 H         1 <0>         0.1237
      6 C5          0.1566   -2.7455    0.3590 C.3       1 <0>        -0.1190
      7 C6          1.2663   -1.9844    0.3379 C.2       1 <0>         0.1169
      8 N1          1.2009   -0.6636   -0.0134 N.2       1 <0>        -0.4413
      9 C7          2.5957   -2.5919    0.7047 C.3       1 <0>        -0.0925
     10 C8          0.2594   -4.1067    0.7283 C.2       1 <0>         0.4914
     11 O1          1.3431   -4.5785    1.0178 O.2       1 <0>        -0.4999
     12 O2         -0.8444   -4.8824    0.7599 O.3       1 <0>        -0.3395
     13 C9         -0.6671   -6.2479    1.1419 C.3       1 <0>         0.0818
     14 C10        -0.8164   -6.3765    2.6591 C.3       1 <0>        -0.1711
     15 C11        -1.7232   -7.1123    0.4503 C.3       1 <0>        -0.1500
     16 C12        -1.5765   -2.6467   -1.3747 C.ar      1 <0>        -0.0414
     17 C13        -0.8038   -2.3356   -2.4445 C.ar      1 <0>        -0.0829
     18 C14        -1.1282   -2.7565   -3.7404 C.ar      1 <0>        -0.0824
     19 C15        -2.2394   -3.4891   -3.9998 C.ar      1 <0>        -0.0610
     20 C16        -3.0947   -3.8466   -2.9395 C.ar      1 <0>         0.0162
     21 C17        -2.7476   -3.4058   -1.5652 C.ar      1 <0>         0.0400
     22 N2         -3.7273   -3.8968   -0.8474 N.2       1 <0>        -0.3240
     23 O3         -4.4944   -4.4927   -1.5770 O.3       1 <0>         0.3794
     24 N3         -4.2100   -4.5096   -2.7578 N.2       1 <0>        -0.3431
     25 C18        -2.3755    0.0388    0.0695 C.2       1 <0>         0.4886
     26 O4         -2.3650    1.2556    0.0867 O.2       1 <0>        -0.4963
     27 O5         -3.5496   -0.6263    0.0883 O.3       1 <0>        -0.3488
     28 C19        -4.7410    0.1619    0.1283 C.3       1 <0>         0.0360
     29 H2          0.5952   -3.1035   -0.4653 H         1 <0>         0.1456
     30 H3          0.4823    1.8775   -0.8840 H         1 <0>         0.1450
     31 H4         -0.5288    1.8545    0.9055 H         1 <0>         0.1479
     32 H5         -1.4154   -0.8570    0.9794 H         1 <0>         0.0985
     33 H6          3.3745   -1.8328    0.6322 H         1 <0>         0.0760
     34 H7          2.5523   -2.9716    1.7255 H         1 <0>         0.0910
     35 H8          2.8219   -3.4108    0.0218 H         1 <0>         0.0815
     36 H9          0.3272   -6.5820    0.8450 H         1 <0>         0.0860
     37 H10        -1.8107   -6.0424    2.9559 H         1 <0>         0.0679
     38 H11        -0.6811   -7.4181    2.9505 H         1 <0>         0.0767
     39 H12        -0.0641   -5.7608    3.1518 H         1 <0>         0.0627
     40 H13        -1.6166   -7.0207   -0.6306 H         1 <0>         0.0583
     41 H14        -1.5879   -8.1539    0.7417 H         1 <0>         0.0816
     42 H15        -2.7173   -6.7782    0.7470 H         1 <0>         0.0707
     43 H16         0.0908   -1.7498   -2.2923 H         1 <0>         0.1401
     44 H17        -0.4765   -2.4857   -4.5580 H         1 <0>         0.1485
     45 H18        -2.4664   -3.7960   -5.0100 H         1 <0>         0.1492
     46 H19        -4.7390    0.7781    1.0274 H         1 <0>         0.0644
     47 H20        -4.7819    0.8035   -0.7519 H         1 <0>         0.0635
     48 H21        -5.6109   -0.4949    0.1399 H         1 <0>         0.1051
@<TRIPOS>BOND
     1    1   30 1
     2    1   31 1
     3    1    2 2
     4    2    3 1
     5    2    8 1
     6    3    4 1
     7    3   25 1
     8    3   32 1
     9    4    5 1
    10    4    6 1
    11    4   16 1
    12    6   10 1
    13    6    7 1
    14    6   29 1
    15    7    9 1
    16    7    8 2
    17    9   33 1
    18    9   34 1
    19    9   35 1
    20   10   11 2
    21   10   12 1
    22   12   13 1
    23   13   14 1
    24   13   15 1
    25   13   36 1
    26   14   37 1
    27   14   38 1
    28   14   39 1
    29   15   40 1
    30   15   41 1
    31   15   42 1
    32   16   21 ar
    33   16   17 ar
    34   17   18 ar
    35   17   43 1
    36   18   19 ar
    37   18   44 1
    38   19   20 ar
    39   19   45 1
    40   20   24 2
    41   20   21 ar
    42   21   22 2
    43   22   23 1
    44   23   24 1
    45   25   26 2
    46   25   27 1
    47   27   28 1
    48   28   46 1
    49   28   47 1
    50   28   48 1
@<TRIPOS>MOLECULE
ZINC00896583
   48    50     0     0     0
SMALL
USER_CHARGES
isopropyl methyl 2,6-dimethyl-4-(8-oxa-7,9-diazabicyclo[4.3.0]nona-2,4,6,9-tetraen-5-yl)-1,4-dihydropyridine-3,5-dicarboxylate
@<TRIPOS>ATOM
      1 C1         -0.0183    1.5027    0.0089 C.2       1 <0>        -0.5456
      2 C2          0.0022   -0.0042    0.0011 C.2       1 <0>         0.3064
      3 C3         -1.1573   -0.6782    0.0300 C.3       1 <0>        -0.1578
      4 C4         -1.1887   -2.1797    0.0271 C.3       1 <0>         0.0433
      5 H1         -1.9141   -2.5334    0.7599 H         1 <0>         0.1189
      6 C5          0.1634   -2.7454    0.3568 C.3       1 <0>        -0.2928
      7 C6          1.2725   -1.9842    0.3151 C.2       1 <0>         0.2254
      8 N1          1.2005   -0.6635   -0.0352 N.2       1 <0>        -0.5695
      9 C7          2.6084   -2.5915    0.6577 C.3       1 <0>        -0.0983
     10 C8          0.2731   -4.1065    0.7245 C.2       1 <0>         0.5146
     11 O1          1.3620   -4.5781    0.9942 O.2       1 <0>        -0.5184
     12 O2         -0.8298   -4.8823    0.7765 O.3       1 <0>        -0.3450
     13 C9         -0.6454   -6.2476    1.1555 C.3       1 <0>         0.0825
     14 C10        -0.7669   -6.3759    2.6752 C.3       1 <0>        -0.1693
     15 C11        -1.7140   -7.1124    0.4836 C.3       1 <0>        -0.1478
     16 C12        -1.6012   -2.6472   -1.3449 C.ar      1 <0>        -0.0433
     17 C13        -0.8482   -2.3363   -2.4288 C.ar      1 <0>        -0.0913
     18 C14        -1.1963   -2.7575   -3.7184 C.ar      1 <0>        -0.0845
     19 C15        -2.3120   -3.4903   -3.9572 C.ar      1 <0>        -0.0598
     20 C16        -3.1476   -3.8476   -2.8813 C.ar      1 <0>         0.0153
     21 C17        -2.7755   -3.4064   -1.5137 C.ar      1 <0>         0.0406
     22 N2         -3.7419   -3.8973   -0.7780 N.2       1 <0>        -0.3166
     23 O3         -4.5221   -4.4935   -1.4932 O.3       1 <0>         0.3808
     24 N3         -4.2594   -4.5107   -2.6791 N.2       1 <0>        -0.3436
     25 C18        -2.3755    0.0388    0.0695 C.2       1 <0>         0.4840
     26 O4         -2.3650    1.2556    0.0867 O.2       1 <0>        -0.4698
     27 O5         -3.5496   -0.6263    0.0883 O.3       1 <0>        -0.3556
     28 C19        -4.7410    0.1619    0.1283 C.3       1 <0>         0.0374
     29 H2          0.6351    2.0145   -0.5489 H         1 <0>         0.2621
     30 H3          0.4823    1.8775   -0.8840 H         1 <0>         0.3433
     31 H4         -0.5288    1.8545    0.9055 H         1 <0>         0.1906
     32 H5         -1.4713   -0.8414   -0.9053 H         1 <0>         0.1722
     33 H6          3.3857   -1.8323    0.5708 H         1 <0>         0.0670
     34 H7          2.5838   -2.9709    1.6793 H         1 <0>         0.0922
     35 H8          2.8221   -3.4105   -0.0290 H         1 <0>         0.0908
     36 H9          0.3432   -6.5818    0.8405 H         1 <0>         0.0805
     37 H10        -1.7557   -6.0418    2.9901 H         1 <0>         0.0654
     38 H11        -0.6262   -7.4174    2.9644 H         1 <0>         0.0719
     39 H12        -0.0057   -5.7600    3.1539 H         1 <0>         0.0605
     40 H13        -1.6273   -7.0210   -0.5991 H         1 <0>         0.0558
     41 H14        -1.5732   -8.1539    0.7728 H         1 <0>         0.0773
     42 H15        -2.7026   -6.7783    0.7984 H         1 <0>         0.0680
     43 H16         0.0489   -1.7503   -2.2931 H         1 <0>         0.1369
     44 H17        -0.5597   -2.4868   -4.5479 H         1 <0>         0.1475
     45 H18        -2.5574   -3.7974   -4.9630 H         1 <0>         0.1493
     46 H19        -4.7390    0.7781    1.0274 H         1 <0>         0.0656
     47 H20        -4.7819    0.8035   -0.7519 H         1 <0>         0.0607
     48 H21        -5.6109   -0.4949    0.1399 H         1 <0>         0.1022
@<TRIPOS>BOND
     1    1   30 1
     2    1   31 1
     3    1    2 2
     4    2    3 1
     5    2    8 1
     6    3    4 1
     7    3   25 1
     8    3   32 1
     9    4    5 1
    10    4    6 1
    11    4   16 1
    12    6   10 1
    13    6   29 1
    14    6    7 1
    15    7    9 1
    16    7    8 2
    17    9   33 1
    18    9   34 1
    19    9   35 1
    20   10   11 2
    21   10   12 1
    22   12   13 1
    23   13   14 1
    24   13   15 1
    25   13   36 1
    26   14   37 1
    27   14   38 1
    28   14   39 1
    29   15   40 1
    30   15   41 1
    31   15   42 1
    32   16   21 ar
    33   16   17 ar
    34   17   18 ar
    35   17   43 1
    36   18   19 ar
    37   18   44 1
    38   19   20 ar
    39   19   45 1
    40   20   24 2
    41   20   21 ar
    42   21   22 2
    43   22   23 1
    44   23   24 1
    45   25   26 2
    46   25   27 1
    47   27   28 1
    48   28   46 1
    49   28   47 1
    50   28   48 1
@<TRIPOS>MOLECULE
ZINC18115268
   34    34     0     0     0
SMALL
USER_CHARGES

@<TRIPOS>ATOM
      1 C1         -0.2305    1.5570   -0.1028 C.3       1 <0>        -0.1054
      2 C2         -0.2654    0.0506   -0.1299 C.2       1 <0>         0.0930
      3 C3         -0.2570   -0.7330   -1.2251 C.2       1 <0>         0.0307
      4 N1         -0.2971   -2.0113   -0.8210 N.pl3     1 <0>        -0.4669
      5 C4         -0.3301   -2.0496    0.4830 C.cat     1 <0>         0.3165
      6 N2         -0.3058   -0.7843    0.9540 N.pl3     1 <0>        -0.5108
      7 H1         -0.3170   -0.5169    1.8864 H         1 <0>         0.4678
      8 C5         -0.2106   -0.2570   -2.6543 C.3       1 <0>        -0.0413
      9 S1          1.5173   -0.1064   -3.1856 S.3       1 <0>        -0.2044
     10 C6          1.4000    0.4680   -4.9023 C.3       1 <0>        -0.1066
     11 C7          2.8064    0.6390   -5.4800 C.3       1 <0>         0.1307
     12 N3          2.7117    1.1029   -6.8664 N.pl3     1 <0>        -0.7022
     13 C8          3.8480    1.3270   -7.5908 C.2       1 <0>         0.6879
     14 N4          3.7625    1.7454   -8.8414 N.2       1 <0>        -0.5740
     15 C9          4.8834    2.0997   -9.5153 C.1       1 <0>         0.3931
     16 N5          5.8231    2.3968  -10.0803 N.1       1 <0>        -0.4737
     17 N6          5.0725    1.1185   -7.0225 N.pl3     1 <0>        -0.7457
     18 C10         6.2909    1.4480   -7.7662 C.3       1 <0>         0.0680
     19 H2          0.8051    1.8960   -0.0762 H         1 <0>         0.1103
     20 H3         -0.7179    1.9478   -0.9960 H         1 <0>         0.1072
     21 H4         -0.7535    1.9166    0.7833 H         1 <0>         0.0968
     22 H5         -0.3667   -2.9451    1.0857 H         1 <0>         0.2703
     23 H6         -0.7260   -0.9743   -3.2930 H         1 <0>         0.1165
     24 H7         -0.6999    0.7140   -2.7299 H         1 <0>         0.1296
     25 H8          0.8508   -0.2646   -5.4938 H         1 <0>         0.1033
     26 H9          0.8769    1.4238   -4.9307 H         1 <0>         0.1054
     27 H10         3.3556    1.3715   -4.8885 H         1 <0>         0.0843
     28 H11         3.3296   -0.3168   -5.4517 H         1 <0>         0.0821
     29 H12         1.8421    1.2509   -7.2700 H         1 <0>         0.4289
     30 H13         5.1354    0.7523   -6.1265 H         1 <0>         0.4011
     31 H14         6.3245    0.8638   -8.6858 H         1 <0>         0.0760
     32 H15         6.2914    2.5103   -8.0104 H         1 <0>         0.0759
     33 H16         7.1634    1.2152   -7.1557 H         1 <0>         0.0891
     34 H17        -0.3013   -2.7852   -1.4058 H         1 <0>         0.4664
@<TRIPOS>BOND
     1    1    2 1
     2    1   19 1
     3    1   20 1
     4    1   21 1
     5    2    6 1
     6    2    3 2
     7    3    4 1
     8    3    8 1
     9    4    5 2
    10    4   34 1
    11    5    6 1
    12    5   22 1
    13    6    7 1
    14    8    9 1
    15    8   23 1
    16    8   24 1
    17    9   10 1
    18   10   11 1
    19   10   25 1
    20   10   26 1
    21   11   12 1
    22   11   27 1
    23   11   28 1
    24   12   13 1
    25   12   29 1
    26   13   14 2
    27   13   17 1
    28   14   15 1
    29   15   16 3
    30   17   18 1
    31   17   30 1
    32   18   31 1
    33   18   32 1
    34   18   33 1
@<TRIPOS>MOLECULE
ZINC00896583
   48    50     0     0     0
SMALL
USER_CHARGES
isopropyl methyl 2,6-dimethyl-4-(8-oxa-7,9-diazabicyclo[4.3.0]nona-2,4,6,9-tetraen-5-yl)-1,4-dihydropyridine-3,5-dicarboxylate
@<TRIPOS>ATOM
      1 C1         -0.0183    1.5027    0.0089 C.3       1 <0>        -0.0914
      2 C2          0.0022   -0.0042    0.0011 C.2       1 <0>         0.1995
      3 C3         -1.1573   -0.6782    0.0300 C.2       1 <0>        -0.2558
      4 C4         -1.1892   -2.1796    0.0047 C.3       1 <0>         0.0439
      5 H1         -1.9280   -2.5334    0.7240 H         1 <0>         0.1293
      6 C5          0.1586   -2.7510    0.3134 C.3       1 <0>        -0.1257
      7 C6          1.2685   -1.9900    0.2942 C.2       1 <0>         0.2444
      8 N1          1.2004   -0.6637   -0.0352 N.2       1 <0>        -0.5115
      9 C7          2.6009   -2.6037    0.6388 C.3       1 <0>        -0.1167
     10 C8          0.2642   -4.1179    0.6598 C.2       1 <0>         0.4913
     11 O1          1.3504   -4.5947    0.9316 O.2       1 <0>        -0.4976
     12 O2         -0.8396   -4.8937    0.6892 O.3       1 <0>        -0.3317
     13 C9         -0.6594   -6.2652    1.0475 C.3       1 <0>         0.0813
     14 C10        -0.7946   -6.4182    2.5637 C.3       1 <0>        -0.1717
     15 C11        -1.7223   -7.1181    0.3519 C.3       1 <0>        -0.1507
     16 C12        -1.5765   -2.6467   -1.3747 C.ar      1 <0>        -0.0335
     17 C13        -0.8037   -2.3356   -2.4445 C.ar      1 <0>        -0.0942
     18 C14        -1.1282   -2.7565   -3.7405 C.ar      1 <0>        -0.0828
     19 C15        -2.2393   -3.4891   -3.9998 C.ar      1 <0>        -0.0599
     20 C16        -3.0946   -3.8466   -2.9396 C.ar      1 <0>         0.0161
     21 C17        -2.7475   -3.4058   -1.5653 C.ar      1 <0>         0.0408
     22 N2         -3.7273   -3.8968   -0.8475 N.2       1 <0>        -0.3190
     23 O3         -4.4943   -4.4927   -1.5771 O.3       1 <0>         0.3809
     24 N3         -4.2099   -4.5096   -2.7579 N.2       1 <0>        -0.3430
     25 C18        -2.3750    0.0386    0.0853 C.2       1 <0>         0.5119
     26 O4         -2.3640    1.2551    0.1158 O.2       1 <0>        -0.5063
     27 O5         -3.5492   -0.6263    0.1042 O.3       1 <0>        -0.3492
     28 C19        -4.7400    0.1616    0.1606 C.3       1 <0>         0.0369
     29 H2          0.9199    1.8488    0.0020 H         1 <0>         0.0646
     30 H3         -0.5453    1.8635   -0.8745 H         1 <0>         0.0925
     31 H4         -0.5288    1.8545    0.9055 H         1 <0>         0.0966
     32 H5          0.5776   -3.0904   -0.5288 H         1 <0>         0.1509
     33 H6          3.3794   -1.8438    0.5712 H         1 <0>         0.0893
     34 H7          2.5669   -2.9998    1.6537 H         1 <0>         0.1108
     35 H8          2.8204   -3.4116   -0.0593 H         1 <0>         0.0968
     36 H9          0.3319   -6.5948    0.7360 H         1 <0>         0.0870
     37 H10        -1.7859   -6.0885    2.8752 H         1 <0>         0.0697
     38 H11        -0.6571   -7.4644    2.8371 H         1 <0>         0.0779
     39 H12        -0.0374   -5.8107    3.0592 H         1 <0>         0.0631
     40 H13        -1.6258   -7.0091   -0.7282 H         1 <0>         0.0587
     41 H14        -1.5848   -8.1643    0.6253 H         1 <0>         0.0830
     42 H15        -2.7135   -6.7884    0.6633 H         1 <0>         0.0720
     43 H16         0.0908   -1.7498   -2.2923 H         1 <0>         0.1340
     44 H17        -0.4764   -2.4856   -4.5580 H         1 <0>         0.1483
     45 H18        -2.4663   -3.7960   -5.0101 H         1 <0>         0.1497
     46 H19        -4.7321    0.7679    1.0665 H         1 <0>         0.0616
     47 H20        -4.7864    0.8129   -0.7121 H         1 <0>         0.0583
     48 H21        -5.6100   -0.4950    0.1705 H         1 <0>         0.0997
@<TRIPOS>BOND
     1    1    2 1
     2    1   29 1
     3    1   30 1
     4    1   31 1
     5    2    8 1
     6    2    3 2
     7    3    4 1
     8    3   25 1
     9    4    5 1
    10    4    6 1
    11    4   16 1
    12    6   10 1
    13    6   32 1
    14    6    7 1
    15    7    9 1
    16    7    8 2
    17    9   33 1
    18    9   34 1
    19    9   35 1
    20   10   11 2
    21   10   12 1
    22   12   13 1
    23   13   14 1
    24   13   15 1
    25   13   36 1
    26   14   37 1
    27   14   38 1
    28   14   39 1
    29   15   40 1
    30   15   41 1
    31   15   42 1
    32   16   21 ar
    33   16   17 ar
    34   17   18 ar
    35   17   43 1
    36   18   19 ar
    37   18   44 1
    38   19   20 ar
    39   19   45 1
    40   20   24 2
    41   20   21 ar
    42   21   22 2
    43   22   23 1
    44   23   24 1
    45   25   26 2
    46   25   27 1
    47   27   28 1
    48   28   46 1
    49   28   47 1
    50   28   48 1
@<TRIPOS>MOLECULE
ZINC03137566
   28    29     0     0     0
SMALL
USER_CHARGES

@<TRIPOS>ATOM
      1 C1         -0.0187    1.5258    0.0104 C.3       1 <0>        -0.1579
      2 C2          0.0021   -0.0041    0.0020 C.3       1 <0>        -0.0981
      3 C3          0.7182   -0.4975   -1.2568 C.3       1 <0>        -0.1275
      4 C4         -0.1260   -0.1190   -2.4598 C.2       1 <0>         0.5504
      5 O1         -1.2714   -0.4996   -2.5734 O.2       1 <0>        -0.5174
      6 N1          0.4543    0.6603   -3.3991 N.am      1 <0>        -0.6838
      7 C5          1.7389    1.0868   -3.2719 C.2       1 <0>         0.6402
      8 O2          2.2383    1.8597   -4.2531 O.3       1 <0>        -0.6575
      9 N2          2.5269    0.8011   -2.2641 N.2       1 <0>        -0.6770
     10 C6          2.1350    0.0437   -1.2369 C.2       1 <0>         0.5374
     11 O3          2.8886   -0.2043   -0.3167 O.2       1 <0>        -0.5291
     12 C7          0.7895   -2.0015   -1.1932 C.ar      1 <0>        -0.0431
     13 C8          0.2464   -2.6741   -0.1146 C.ar      1 <0>        -0.1056
     14 C9          0.3117   -4.0537   -0.0562 C.ar      1 <0>        -0.1205
     15 C10         0.9198   -4.7606   -1.0767 C.ar      1 <0>        -0.1263
     16 C11         1.4622   -4.0880   -2.1557 C.ar      1 <0>        -0.1157
     17 C12         1.3930   -2.7087   -2.2161 C.ar      1 <0>        -0.1112
     18 H1          1.0039    1.9031    0.0027 H         1 <0>         0.0635
     19 H2         -0.5459    1.8868   -0.8726 H         1 <0>         0.0492
     20 H3         -0.5289    1.8773    0.9072 H         1 <0>         0.0615
     21 H4          0.5293   -0.3651    0.8851 H         1 <0>         0.0855
     22 H5         -1.0205   -0.3814    0.0098 H         1 <0>         0.0756
     23 H6         -0.0568    0.9208   -4.1813 H         1 <0>         0.4015
     24 H7         -0.2287   -2.1218    0.6827 H         1 <0>         0.1284
     25 H8         -0.1120   -4.5792    0.7869 H         1 <0>         0.1212
     26 H9          0.9715   -5.8384   -1.0307 H         1 <0>         0.1192
     27 H10         1.9376   -4.6403   -2.9528 H         1 <0>         0.1211
     28 H11         1.8134   -2.1834   -3.0610 H         1 <0>         0.1159
@<TRIPOS>BOND
     1    1    2 1
     2    1   18 1
     3    1   19 1
     4    1   20 1
     5    2    3 1
     6    2   21 1
     7    2   22 1
     8    3   10 1
     9    3    4 1
    10    3   12 1
    11    4    5 2
    12    4    6 am
    13    6    7 1
    14    6   23 1
    15    7    8 1
    16    7    9 2
    17    9   10 1
    18   10   11 2
    19   12   17 ar
    20   12   13 ar
    21   13   14 ar
    22   13   24 1
    23   14   15 ar
    24   14   25 1
    25   15   16 ar
    26   15   26 1
    27   16   17 ar
    28   16   27 1
    29   17   28 1
@<TRIPOS>MOLECULE
ZINC28240499
   61    64     0     0     0
SMALL
USER_CHARGES
[3-[[(2R,3S)-2-[(1R)-1-[3,5-bis(trifluoromethyl)phenyl]ethoxy]-3-(4-fluorophenyl)morpholin-4-yl]methyl]-5-hydroxy-1,2,4-triazol-1-yl]phosphonic acid
@<TRIPOS>ATOM
      1 C1          1.6276    0.2173   -4.2187 C.3       1 <0>        -0.1761
      2 C2          0.5313   -0.6676   -3.6222 C.3       1 <0>         0.1320
      3 H1          0.9156   -1.6606   -3.3461 H         1 <0>         0.0752
      4 C3         -0.6014   -0.7971   -4.6077 C.ar      1 <0>        -0.0780
      5 C4         -1.5363    0.2146   -4.7230 C.ar      1 <0>        -0.0047
      6 C5         -2.5728    0.0977   -5.6301 C.ar      1 <0>        -0.1839
      7 C6         -2.6797   -1.0349   -6.4154 C.ar      1 <0>        -0.0255
      8 C7         -1.7478   -2.0490   -6.2963 C.ar      1 <0>        -0.1885
      9 C8         -0.7088   -1.9302   -5.3923 C.ar      1 <0>        -0.0318
     10 C9         -1.8643   -3.2837   -7.1523 C.3       1 <0>         0.5136
     11 F1         -2.6421   -4.2391   -6.4894 F         1 <0>        -0.1732
     12 F2         -2.4699   -2.9522   -8.3691 F         1 <0>        -0.1747
     13 F3         -0.5891   -3.8062   -7.3932 F         1 <0>        -0.1742
     14 C10        -3.5885    1.2034   -5.7603 C.3       1 <0>         0.5114
     15 F4         -4.5337    0.8564   -6.7315 F         1 <0>        -0.1777
     16 F5         -4.2304    1.3940   -4.5320 F         1 <0>        -0.1685
     17 F6         -2.9442    2.3863   -6.1383 F         1 <0>        -0.1694
     18 O1          0.0468   -0.0769   -2.4145 O.3       1 <0>        -0.3718
     19 C11         0.7497   -0.4921   -1.2417 C.3       1 <0>         0.2654
     20 H2          0.8502   -1.5865   -1.2881 H         1 <0>         0.1043
     21 C12         0.0021   -0.0041    0.0020 C.3       1 <0>         0.1120
     22 H3          0.5030   -0.3398    0.9220 H         1 <0>         0.0823
     23 N1         -0.0179    1.4659    0.0101 N.3       1 <0>        -0.5178
     24 C13         1.3496    2.0055   -0.0001 C.3       1 <0>         0.0114
     25 C14         2.0838    1.4973   -1.2437 C.3       1 <0>         0.0631
     26 O2          2.0659    0.0673   -1.2506 O.3       1 <0>        -0.3924
     27 C15        -0.7765    1.9758    1.1601 C.3       1 <0>         0.1437
     28 C16        -0.5725    3.4644    1.2763 C.2       1 <0>         0.1947
     29 N2         -1.3280    4.3968    0.6946 N.am      1 <0>        -0.6118
     30 C17        -0.8747    5.5908    1.0031 C.2       1 <0>         0.5943
     31 N3          0.1991    5.4328    1.8028 N.am      1 <0>        -0.6463
     32 N4          0.3692    4.0486    1.9675 N.2       1 <0>        -0.2303
     33 P1          1.1195    6.6211    2.4588 P.3       1 <0>         2.1703
     34 O3          1.1173    7.7986    1.5621 O.2       1 <0>        -1.1178
     35 O4          0.5167    7.0372    3.8925 O.3       1 <0>        -1.1720
     36 O5          2.6283    6.0907    2.6444 O.3       1 <0>        -1.1636
     37 O6         -1.3945    6.7716    0.5909 O.2       1 <0>        -0.6106
     38 C18        -1.4113   -0.5264   -0.0221 C.ar      1 <0>        -0.0921
     39 C19        -2.3669    0.1026   -0.7983 C.ar      1 <0>        -0.0416
     40 C20        -3.6622   -0.3784   -0.8250 C.ar      1 <0>        -0.1587
     41 C21        -4.0052   -1.4843   -0.0658 C.ar      1 <0>         0.0981
     42 C22        -3.0486   -2.1102    0.7153 C.ar      1 <0>        -0.1593
     43 C23        -1.7526   -1.6306    0.7363 C.ar      1 <0>        -0.0826
     44 F7         -5.2723   -1.9525   -0.0874 F         1 <0>        -0.1445
     45 H4          2.4544    0.3118   -3.4993 H         1 <0>         0.0837
     46 H5          1.2160    1.2137   -4.4373 H         1 <0>         0.0691
     47 H6          2.0005   -0.2374   -5.1483 H         1 <0>         0.0634
     48 H7         -1.4549    1.0979   -4.1069 H         1 <0>         0.1544
     49 H8         -3.4910   -1.1274   -7.1222 H         1 <0>         0.1500
     50 H9          0.0193   -2.7224   -5.2992 H         1 <0>         0.1454
     51 H10         1.3099    3.1046   -0.0189 H         1 <0>         0.1044
     52 H11         1.8817    1.6733    0.9035 H         1 <0>         0.0594
     53 H12         1.5822    1.8766   -2.1462 H         1 <0>         0.0711
     54 H13         3.1246    1.8528   -1.2259 H         1 <0>         0.1046
     55 H14        -1.8461    1.7623    1.0175 H         1 <0>         0.1004
     56 H15        -0.4239    1.4845    2.0790 H         1 <0>         0.0739
     57 H16        -2.1001    0.9677   -1.3872 H         1 <0>         0.1471
     58 H17        -4.4076    0.1106   -1.4346 H         1 <0>         0.1334
     59 H18        -3.3151   -2.9727    1.3082 H         1 <0>         0.1316
     60 H19        -1.0062   -2.1189    1.3452 H         1 <0>         0.1311
     61 H20        -2.1822    4.1005    0.0681 H         1 <0>         0.4441
@<TRIPOS>BOND
     1    1    2 1
     2    1   45 1
     3    1   46 1
     4    1   47 1
     5    2    3 1
     6    2    4 1
     7    2   18 1
     8    4    9 ar
     9    4    5 ar
    10    5    6 ar
    11    5   48 1
    12    6    7 ar
    13    6   14 1
    14    7    8 ar
    15    7   49 1
    16    8    9 ar
    17    8   10 1
    18    9   50 1
    19   10   11 1
    20   10   12 1
    21   10   13 1
    22   14   15 1
    23   14   16 1
    24   14   17 1
    25   18   19 1
    26   19   20 1
    27   19   26 1
    28   19   21 1
    29   21   22 1
    30   21   23 1
    31   21   38 1
    32   23   24 1
    33   23   27 1
    34   24   25 1
    35   24   51 1
    36   24   52 1
    37   25   26 1
    38   25   53 1
    39   25   54 1
    40   27   28 1
    41   27   55 1
    42   27   56 1
    43   28   32 2
    44   28   29 1
    45   29   30 am
    46   29   61 1
    47   30   31 am
    48   30   37 2
    49   31   32 1
    50   31   33 1
    51   33   34 2
    52   33   35 1
    53   33   36 1
    54   38   43 ar
    55   38   39 ar
    56   39   40 ar
    57   39   57 1
    58   40   41 ar
    59   40   58 1
    60   41   42 ar
    61   41   44 1
    62   42   43 ar
    63   42   59 1
    64   43   60 1
@<TRIPOS>MOLECULE
ZINC19364222
   54    56     0     0     0
SMALL
USER_CHARGES

@<TRIPOS>ATOM
      1 C1         -0.0167    1.3781    0.0096 C.ar      1 <0>        -0.0913
      2 C2          1.1709    2.0855    0.0021 C.ar      1 <0>        -0.1031
      3 C3          2.3773    1.4107   -0.0130 C.ar      1 <0>        -0.0855
      4 C4          2.3960    0.0285   -0.0201 C.ar      1 <0>        -0.1332
      5 C5          1.2084   -0.6789   -0.0117 C.ar      1 <0>        -0.1217
      6 C6          0.0021   -0.0041    0.0020 C.ar      1 <0>        -0.1024
      7 C7          3.7112   -0.7071   -0.0376 C.3       1 <0>         0.1346
      8 H1          4.4960   -0.0399   -0.3940 H         1 <0>         0.1515
      9 C8          4.0438   -1.1746    1.3559 C.ar      1 <0>        -0.1288
     10 C9          3.4553   -2.3197    1.8594 C.ar      1 <0>        -0.1084
     11 C10         3.7599   -2.7490    3.1374 C.ar      1 <0>        -0.0952
     12 C11         4.6540   -2.0325    3.9128 C.ar      1 <0>        -0.0147
     13 C12         5.2427   -0.8866    3.4084 C.ar      1 <0>        -0.0958
     14 C13         4.9415   -0.4614    2.1282 C.ar      1 <0>        -0.0720
     15 Cl1         5.0367   -2.5708    5.5182 Cl        1 <0>        -0.0384
     16 N1          3.6112   -1.8677   -0.9326 N.4       1 <0>        -0.3841
     17 C14         4.8926   -2.5855   -0.9481 C.3       1 <0>        -0.0043
     18 C15         4.7832   -3.8052   -1.8657 C.3       1 <0>         0.0294
     19 N2          4.4330   -3.3636   -3.2231 N.3       1 <0>        -0.5281
     20 C16         3.1643   -2.6216   -3.2195 C.3       1 <0>         0.0237
     21 C17         3.2871   -1.4117   -2.2908 C.3       1 <0>        -0.0019
     22 C18         4.3739   -4.5029   -4.1485 C.3       1 <0>         0.0574
     23 C19         4.2557   -3.9880   -5.5844 C.3       1 <0>         0.0611
     24 O1          5.4449   -3.2774   -5.9351 O.3       1 <0>        -0.3657
     25 C20         5.4375   -2.7520   -7.2639 C.3       1 <0>         0.0603
     26 C21         6.7522   -2.0154   -7.5284 C.3       1 <0>         0.0787
     27 O2          7.8351   -2.9472   -7.4964 O.3       1 <0>        -0.5676
     28 H2         -0.9591    1.9053    0.0259 H         1 <0>         0.1364
     29 H3          1.1563    3.1654    0.0076 H         1 <0>         0.1379
     30 H4          3.3051    1.9634   -0.0196 H         1 <0>         0.1340
     31 H5          1.2231   -1.7588   -0.0176 H         1 <0>         0.1137
     32 H6         -0.9258   -0.5567    0.0082 H         1 <0>         0.1354
     33 H7          2.7571   -2.8788    1.2541 H         1 <0>         0.1233
     34 H8          3.2998   -3.6435    3.5307 H         1 <0>         0.1464
     35 H9          5.9405   -0.3266    4.0133 H         1 <0>         0.1488
     36 H10         5.4046    0.4305    1.7325 H         1 <0>         0.1439
     37 H11         5.6758   -1.9229   -1.3163 H         1 <0>         0.1413
     38 H12         5.1384   -2.9120    0.0624 H         1 <0>         0.1358
     39 H13         5.7385   -4.3296   -1.8890 H         1 <0>         0.1265
     40 H14         4.0094   -4.4747   -1.4901 H         1 <0>         0.0584
     41 H15         2.9384   -2.2826   -4.2306 H         1 <0>         0.1240
     42 H16         2.3638   -3.2716   -2.8662 H         1 <0>         0.0586
     43 H17         2.3425   -0.8679   -2.2757 H         1 <0>         0.1361
     44 H18         4.0785   -0.7551   -2.6521 H         1 <0>         0.1403
     45 H19         5.2814   -5.0987   -4.0497 H         1 <0>         0.0998
     46 H20         3.5069   -5.1194   -3.9110 H         1 <0>         0.0620
     47 H21         4.1227   -4.8308   -6.2628 H         1 <0>         0.0624
     48 H22         3.3975   -3.3205   -5.6616 H         1 <0>         0.0483
     49 H23         5.3290   -3.5690   -7.9771 H         1 <0>         0.0584
     50 H24         4.6038   -2.0588   -7.3759 H         1 <0>         0.0620
     51 H25         6.7113   -1.5394   -8.5081 H         1 <0>         0.0628
     52 H26         6.9037   -1.2558   -6.7615 H         1 <0>         0.0527
     53 H27         8.7016   -2.5490   -7.6565 H         1 <0>         0.3834
     54 H28         2.8844   -2.4849   -0.6028 H         1 <0>         0.4129
@<TRIPOS>BOND
     1    1    6 ar
     2    1    2 ar
     3    1   28 1
     4    2    3 ar
     5    2   29 1
     6    3    4 ar
     7    3   30 1
     8    4    5 ar
     9    4    7 1
    10    5    6 ar
    11    5   31 1
    12    6   32 1
    13    7    8 1
    14    7    9 1
    15    7   16 1
    16    9   14 ar
    17    9   10 ar
    18   10   11 ar
    19   10   33 1
    20   11   12 ar
    21   11   34 1
    22   12   13 ar
    23   12   15 1
    24   13   14 ar
    25   13   35 1
    26   14   36 1
    27   16   21 1
    28   16   17 1
    29   16   54 1
    30   17   18 1
    31   17   37 1
    32   17   38 1
    33   18   19 1
    34   18   39 1
    35   18   40 1
    36   19   20 1
    37   19   22 1
    38   20   21 1
    39   20   41 1
    40   20   42 1
    41   21   43 1
    42   21   44 1
    43   22   23 1
    44   22   45 1
    45   22   46 1
    46   23   24 1
    47   23   47 1
    48   23   48 1
    49   24   25 1
    50   25   26 1
    51   25   49 1
    52   25   50 1
    53   26   27 1
    54   26   51 1
    55   26   52 1
    56   27   53 1
@<TRIPOS>MOLECULE
ZINC19364222
   53    55     0     0     0
SMALL
USER_CHARGES

@<TRIPOS>ATOM
      1 C1          6.5912    1.7379   -2.0312 C.ar      1 <0>        -0.1174
      2 C2          6.6450    1.5865   -0.6583 C.ar      1 <0>        -0.1203
      3 C3          5.7129    0.7954   -0.0131 C.ar      1 <0>        -0.1123
      4 C4          4.7267    0.1561   -0.7408 C.ar      1 <0>        -0.0781
      5 C5          4.6724    0.3082   -2.1137 C.ar      1 <0>        -0.0896
      6 C6          5.6053    1.0982   -2.7590 C.ar      1 <0>        -0.1236
      7 C7          3.7112   -0.7071   -0.0376 C.3       1 <0>         0.1676
      8 H1          4.0570   -0.9251    0.9729 H         1 <0>         0.0595
      9 C8          2.3931    0.0205    0.0286 C.ar      1 <0>        -0.0713
     10 C9          1.6019    0.1210   -1.1005 C.ar      1 <0>        -0.0775
     11 C10         0.3930    0.7882   -1.0405 C.ar      1 <0>        -0.1135
     12 C11        -0.0253    1.3555    0.1500 C.ar      1 <0>        -0.0327
     13 C12         0.7669    1.2545    1.2798 C.ar      1 <0>        -0.1103
     14 C13         1.9731    0.5822    1.2199 C.ar      1 <0>        -0.1001
     15 Cl1        -1.5434    2.1941    0.2261 Cl        1 <0>        -0.0708
     16 N1          3.5400   -1.9641   -0.7783 N.3       1 <0>        -0.5281
     17 C14         2.5171   -2.8110   -0.1492 C.3       1 <0>         0.0574
     18 C15         2.3125   -4.0714   -0.9930 C.3       1 <0>         0.0603
     19 N2          3.5884   -4.7911   -1.1110 N.3       1 <0>        -0.5299
     20 C16         4.6113   -3.9442   -1.7402 C.3       1 <0>         0.0566
     21 C17         4.8158   -2.6838   -0.8963 C.3       1 <0>         0.0598
     22 C18         3.4172   -6.0481   -1.8518 C.3       1 <0>         0.0580
     23 C19         4.6945   -6.8831   -1.7415 C.3       1 <0>         0.0652
     24 O1          4.8943   -7.2705   -0.3807 O.3       1 <0>        -0.3624
     25 C20         6.0670   -8.0586   -0.1669 C.3       1 <0>         0.0603
     26 C21         6.1793   -8.4138    1.3170 C.3       1 <0>         0.0791
     27 O2          5.0856   -9.2546    1.6897 O.3       1 <0>        -0.5667
     28 H2          7.3167    2.3596   -2.5348 H         1 <0>         0.1206
     29 H3          7.4155    2.0860   -0.0897 H         1 <0>         0.1217
     30 H4          5.7554    0.6766    1.0595 H         1 <0>         0.1190
     31 H5          3.9021   -0.1915   -2.6823 H         1 <0>         0.1275
     32 H6          5.5631    1.2168   -3.8317 H         1 <0>         0.1213
     33 H7          1.9288   -0.3216   -2.0299 H         1 <0>         0.1377
     34 H8         -0.2249    0.8670   -1.9228 H         1 <0>         0.1330
     35 H9          0.4411    1.6975    2.2093 H         1 <0>         0.1334
     36 H10         2.5894    0.4992    2.1028 H         1 <0>         0.1294
     37 H11         2.8436   -3.0927    0.8519 H         1 <0>         0.0447
     38 H12         1.5785   -2.2605   -0.0845 H         1 <0>         0.0826
     39 H13         1.5751   -4.7148   -0.5130 H         1 <0>         0.0805
     40 H14         1.9599   -3.7912   -1.9856 H         1 <0>         0.0418
     41 H15         5.5498   -4.4947   -1.8049 H         1 <0>         0.0785
     42 H16         4.2848   -3.6625   -2.7413 H         1 <0>         0.0415
     43 H17         5.5532   -2.0404   -1.3764 H         1 <0>         0.0827
     44 H18         5.1684   -2.9640    0.0963 H         1 <0>         0.0437
     45 H19         2.5807   -6.6064   -1.4315 H         1 <0>         0.0852
     46 H20         3.2166   -5.8275   -2.9002 H         1 <0>         0.0501
     47 H21         4.6011   -7.7737   -2.3629 H         1 <0>         0.0518
     48 H22         5.5454   -6.2917   -2.0797 H         1 <0>         0.0480
     49 H23         6.0021   -8.9737   -0.7556 H         1 <0>         0.0532
     50 H24         6.9464   -7.4917   -0.4724 H         1 <0>         0.0601
     51 H25         7.1180   -8.9384    1.4951 H         1 <0>         0.0589
     52 H26         6.1548   -7.5008    1.9120 H         1 <0>         0.0544
     53 H27         5.0924   -9.5198    2.6196 H         1 <0>         0.3794
@<TRIPOS>BOND
     1    1    6 ar
     2    1    2 ar
     3    1   28 1
     4    2    3 ar
     5    2   29 1
     6    3    4 ar
     7    3   30 1
     8    4    5 ar
     9    4    7 1
    10    5    6 ar
    11    5   31 1
    12    6   32 1
    13    7    8 1
    14    7    9 1
    15    7   16 1
    16    9   14 ar
    17    9   10 ar
    18   10   11 ar
    19   10   33 1
    20   11   12 ar
    21   11   34 1
    22   12   13 ar
    23   12   15 1
    24   13   14 ar
    25   13   35 1
    26   14   36 1
    27   16   21 1
    28   16   17 1
    29   17   18 1
    30   17   37 1
    31   17   38 1
    32   18   19 1
    33   18   39 1
    34   18   40 1
    35   19   20 1
    36   19   22 1
    37   20   21 1
    38   20   41 1
    39   20   42 1
    40   21   43 1
    41   21   44 1
    42   22   23 1
    43   22   45 1
    44   22   46 1
    45   23   24 1
    46   23   47 1
    47   23   48 1
    48   24   25 1
    49   25   26 1
    50   25   49 1
    51   25   50 1
    52   26   27 1
    53   26   51 1
    54   26   52 1
    55   27   53 1
@<TRIPOS>MOLECULE
ZINC19364224
   54    56     0     0     0
SMALL
USER_CHARGES

@<TRIPOS>ATOM
      1 C1          0.2441    2.1500    1.0851 C.ar      1 <0>        -0.0910
      2 C2          1.4939    2.7339    0.9954 C.ar      1 <0>        -0.1029
      3 C3          2.6102    1.9476    0.7797 C.ar      1 <0>        -0.0854
      4 C4          2.4768    0.5775    0.6541 C.ar      1 <0>        -0.1335
      5 C5          1.2272   -0.0065    0.7448 C.ar      1 <0>        -0.1217
      6 C6          0.1107    0.7799    0.9591 C.ar      1 <0>        -0.1022
      7 C7          3.6937   -0.2796    0.4180 C.3       1 <0>         0.1346
      8 H1          4.5870    0.2661    0.7221 H         1 <0>         0.1514
      9 C8          3.7893   -0.6237   -1.0461 C.ar      1 <0>        -0.1290
     10 C9          3.0093   -1.6378   -1.5698 C.ar      1 <0>        -0.1081
     11 C10         3.0966   -1.9539   -2.9125 C.ar      1 <0>        -0.0956
     12 C11         3.9647   -1.2552   -3.7324 C.ar      1 <0>        -0.0147
     13 C12         4.7451   -0.2404   -3.2076 C.ar      1 <0>        -0.0962
     14 C13         4.6528    0.0786   -1.8660 C.ar      1 <0>        -0.0719
     15 Cl1         4.0752   -1.6520   -5.4188 Cl        1 <0>        -0.0385
     16 N1          3.5828   -1.5149    1.2052 N.4       1 <0>        -0.3840
     17 C14         4.7682   -2.3508    0.9734 C.3       1 <0>        -0.0035
     18 C15         4.6444   -3.6462    1.7786 C.3       1 <0>         0.0252
     19 N2          4.5238   -3.3221    3.2071 N.3       1 <0>        -0.5288
     20 C16         3.3552   -2.4648    3.4511 C.3       1 <0>         0.0301
     21 C17         3.4897   -1.1792    2.6321 C.3       1 <0>        -0.0030
     22 C18         4.4596   -4.5437    4.0205 C.3       1 <0>         0.0570
     23 C19         5.8560   -5.1599    4.1264 C.3       1 <0>         0.0641
     24 O1          6.7168   -4.2694    4.8391 O.3       1 <0>        -0.3664
     25 C20         8.0526   -4.7525    4.9947 C.3       1 <0>         0.0607
     26 C21         8.8802   -3.7237    5.7678 C.3       1 <0>         0.0787
     27 O2          8.3662   -3.5993    7.0953 O.3       1 <0>        -0.5679
     28 H2         -0.6275    2.7638    1.2581 H         1 <0>         0.1365
     29 H3          1.5981    3.8043    1.0935 H         1 <0>         0.1380
     30 H4          3.5866    2.4039    0.7089 H         1 <0>         0.1339
     31 H5          1.1229   -1.0769    0.6464 H         1 <0>         0.1137
     32 H6         -0.8657    0.3237    1.0295 H         1 <0>         0.1355
     33 H7          2.3319   -2.1834   -0.9296 H         1 <0>         0.1236
     34 H8          2.4874   -2.7464   -3.3215 H         1 <0>         0.1463
     35 H9          5.4232    0.3052   -3.8471 H         1 <0>         0.1487
     36 H10         5.2584    0.8739   -1.4572 H         1 <0>         0.1439
     37 H11         4.8434   -2.5884   -0.0877 H         1 <0>         0.1350
     38 H12         5.6609   -1.8108    1.2890 H         1 <0>         0.1407
     39 H13         3.7592   -4.1931    1.4538 H         1 <0>         0.0590
     40 H14         5.5307   -4.2601    1.6185 H         1 <0>         0.1230
     41 H15         2.4488   -2.9923    3.1538 H         1 <0>         0.0581
     42 H16         3.3011   -2.2168    4.5111 H         1 <0>         0.1265
     43 H17         4.3889   -0.6452    2.9391 H         1 <0>         0.1406
     44 H18         2.6171   -0.5481    2.8006 H         1 <0>         0.1368
     45 H19         4.0944   -4.2975    5.0176 H         1 <0>         0.0975
     46 H20         3.7822   -5.2573    3.5514 H         1 <0>         0.0641
     47 H21         5.7947   -6.1094    4.6584 H         1 <0>         0.0612
     48 H22         6.2554   -5.3288    3.1264 H         1 <0>         0.0480
     49 H23         8.0370   -5.6934    5.5446 H         1 <0>         0.0579
     50 H24         8.4977   -4.9129    4.0127 H         1 <0>         0.0623
     51 H25         9.9192   -4.0506    5.8096 H         1 <0>         0.0627
     52 H26         8.8229   -2.7587    5.2641 H         1 <0>         0.0527
     53 H27         8.8439   -2.9623    7.6439 H         1 <0>         0.3832
     54 H28         2.7557   -2.0196    0.9239 H         1 <0>         0.4129
@<TRIPOS>BOND
     1    1    6 ar
     2    1    2 ar
     3    1   28 1
     4    2    3 ar
     5    2   29 1
     6    3    4 ar
     7    3   30 1
     8    4    5 ar
     9    4    7 1
    10    5    6 ar
    11    5   31 1
    12    6   32 1
    13    7    8 1
    14    7    9 1
    15    7   16 1
    16    9   14 ar
    17    9   10 ar
    18   10   11 ar
    19   10   33 1
    20   11   12 ar
    21   11   34 1
    22   12   13 ar
    23   12   15 1
    24   13   14 ar
    25   13   35 1
    26   14   36 1
    27   16   21 1
    28   16   17 1
    29   16   54 1
    30   17   18 1
    31   17   37 1
    32   17   38 1
    33   18   19 1
    34   18   39 1
    35   18   40 1
    36   19   20 1
    37   19   22 1
    38   20   21 1
    39   20   41 1
    40   20   42 1
    41   21   43 1
    42   21   44 1
    43   22   23 1
    44   22   45 1
    45   22   46 1
    46   23   24 1
    47   23   47 1
    48   23   48 1
    49   24   25 1
    50   25   26 1
    51   25   49 1
    52   25   50 1
    53   26   27 1
    54   26   51 1
    55   26   52 1
    56   27   53 1
@<TRIPOS>MOLECULE
ZINC19364224
   53    55     0     0     0
SMALL
USER_CHARGES

@<TRIPOS>ATOM
      1 C1          7.2854    1.9516    1.2585 C.ar      1 <0>        -0.1172
      2 C2          7.2598    1.6346   -0.0868 C.ar      1 <0>        -0.1203
      3 C3          6.3151    0.7488   -0.5704 C.ar      1 <0>        -0.1123
      4 C4          5.3962    0.1798    0.2914 C.ar      1 <0>        -0.0782
      5 C5          5.4223    0.4961    1.6368 C.ar      1 <0>        -0.0891
      6 C6          6.3662    1.3829    2.1202 C.ar      1 <0>        -0.1234
      7 C7          4.3657   -0.7851   -0.2359 C.3       1 <0>         0.1676
      8 H1          4.6445   -1.1010   -1.2412 H         1 <0>         0.0594
      9 C8          3.0194   -0.1092   -0.2771 C.ar      1 <0>        -0.0712
     10 C9          2.3144    0.0986    0.8938 C.ar      1 <0>        -0.0779
     11 C10         1.0796    0.7184    0.8566 C.ar      1 <0>        -0.1135
     12 C11         0.5491    1.1310   -0.3527 C.ar      1 <0>        -0.0329
     13 C12         1.2551    0.9228   -1.5242 C.ar      1 <0>        -0.1104
     14 C13         2.4923    0.3079   -1.4851 C.ar      1 <0>        -0.1001
     15 Cl1        -1.0020    1.9091   -0.4002 Cl        1 <0>        -0.0708
     16 N1          4.2976   -1.9587    0.6450 N.3       1 <0>        -0.5278
     17 C14         3.2491   -2.8887    0.2032 C.3       1 <0>         0.0578
     18 C15         3.1570   -4.0554    1.1895 C.3       1 <0>         0.0578
     19 N2          4.4591   -4.7323    1.2664 N.3       1 <0>        -0.5300
     20 C16         5.5077   -3.8023    1.7083 C.3       1 <0>         0.0610
     21 C17         5.5997   -2.6356    0.7219 C.3       1 <0>         0.0593
     22 C18         4.3911   -5.9059    2.1473 C.3       1 <0>         0.0573
     23 C19         3.6793   -7.0487    1.4204 C.3       1 <0>         0.0682
     24 O1          4.4519   -7.4458    0.2857 O.3       1 <0>        -0.3625
     25 C20         3.8724   -8.5132   -0.4672 C.3       1 <0>         0.0605
     26 C21         4.7797   -8.8532   -1.6514 C.3       1 <0>         0.0790
     27 O2          6.0235   -9.3637   -1.1673 O.3       1 <0>        -0.5668
     28 H2          8.0263    2.6401    1.6370 H         1 <0>         0.1206
     29 H3          7.9778    2.0792   -0.7601 H         1 <0>         0.1217
     30 H4          6.2947    0.5017   -1.6215 H         1 <0>         0.1189
     31 H5          4.7042    0.0517    2.3101 H         1 <0>         0.1272
     32 H6          6.3863    1.6303    3.1713 H         1 <0>         0.1214
     33 H7          2.7285   -0.2239    1.8377 H         1 <0>         0.1378
     34 H8          0.5288    0.8803    1.7714 H         1 <0>         0.1330
     35 H9          0.8413    1.2444   -2.4685 H         1 <0>         0.1334
     36 H10         3.0456    0.1496   -2.3990 H         1 <0>         0.1295
     37 H11         2.2925   -2.3674    0.1662 H         1 <0>         0.0819
     38 H12         3.4947   -3.2693   -0.7883 H         1 <0>         0.0439
     39 H13         2.8847   -3.6777    2.1751 H         1 <0>         0.0420
     40 H14         2.3998   -4.7612    0.8482 H         1 <0>         0.0772
     41 H15         5.2620   -3.4218    2.6997 H         1 <0>         0.0415
     42 H16         6.4642   -4.3236    1.7452 H         1 <0>         0.0806
     43 H17         5.8720   -3.0133   -0.2636 H         1 <0>         0.0443
     44 H18         6.3569   -1.9298    1.0632 H         1 <0>         0.0832
     45 H19         5.4005   -6.2184    2.4149 H         1 <0>         0.0833
     46 H20         3.8383   -5.6502    3.0513 H         1 <0>         0.0524
     47 H21         3.5664   -7.8954    2.0974 H         1 <0>         0.0509
     48 H22         2.6960   -6.7131    1.0910 H         1 <0>         0.0465
     49 H23         3.7635   -9.3903    0.1706 H         1 <0>         0.0528
     50 H24         2.8931   -8.2080   -0.8358 H         1 <0>         0.0600
     51 H25         4.2964   -9.6051   -2.2752 H         1 <0>         0.0588
     52 H26         4.9606   -7.9540   -2.2404 H         1 <0>         0.0543
     53 H27         6.6496   -9.6008   -1.8650 H         1 <0>         0.3792
@<TRIPOS>BOND
     1    1    6 ar
     2    1    2 ar
     3    1   28 1
     4    2    3 ar
     5    2   29 1
     6    3    4 ar
     7    3   30 1
     8    4    5 ar
     9    4    7 1
    10    5    6 ar
    11    5   31 1
    12    6   32 1
    13    7    8 1
    14    7    9 1
    15    7   16 1
    16    9   14 ar
    17    9   10 ar
    18   10   11 ar
    19   10   33 1
    20   11   12 ar
    21   11   34 1
    22   12   13 ar
    23   12   15 1
    24   13   14 ar
    25   13   35 1
    26   14   36 1
    27   16   21 1
    28   16   17 1
    29   17   18 1
    30   17   37 1
    31   17   38 1
    32   18   19 1
    33   18   39 1
    34   18   40 1
    35   19   20 1
    36   19   22 1
    37   20   21 1
    38   20   41 1
    39   20   42 1
    40   21   43 1
    41   21   44 1
    42   22   23 1
    43   22   45 1
    44   22   46 1
    45   23   24 1
    46   23   47 1
    47   23   48 1
    48   24   25 1
    49   25   26 1
    50   25   49 1
    51   25   50 1
    52   26   27 1
    53   26   51 1
    54   26   52 1
    55   27   53 1
@<TRIPOS>MOLECULE
ZINC22446634
   58    61     0     0     0
SMALL
USER_CHARGES

@<TRIPOS>ATOM
      1 C1         -5.7903   -9.4624    0.1487 C.3       1 <0>        -0.2005
      2 C2         -4.6727   -8.5277    0.5337 C.2       1 <0>         0.3939
      3 O1         -3.8569   -8.8675    1.3650 O.2       1 <0>        -0.4517
      4 C3         -4.5712   -7.2073   -0.0965 C.ar      1 <0>        -0.1368
      5 C4         -5.5155   -6.8112   -1.0522 C.ar      1 <0>        -0.0886
      6 C5         -5.4162   -5.5703   -1.6373 C.ar      1 <0>        -0.0749
      7 C6         -4.3812   -4.7066   -1.2866 C.ar      1 <0>        -0.1230
      8 C7         -3.4312   -5.0924   -0.3379 C.ar      1 <0>         0.1813
      9 C8         -3.5328   -6.3371    0.2602 C.ar      1 <0>        -0.1014
     10 N1         -2.3765   -4.2583    0.0263 N.pl3     1 <0>        -0.5641
     11 C9         -2.3869   -2.8706   -0.0822 C.ar      1 <0>         0.1971
     12 C10        -1.5549   -2.1267    0.7484 C.ar      1 <0>        -0.1604
     13 C11        -1.5367   -0.7478    0.6638 C.ar      1 <0>        -0.0761
     14 C12        -2.3451   -0.0960   -0.2484 C.ar      1 <0>        -0.1383
     15 C13        -3.1773   -0.8250   -1.0775 C.ar      1 <0>        -0.0566
     16 C14        -3.2040   -2.2101   -0.9952 C.ar      1 <0>        -0.1600
     17 S1         -4.2823   -3.1208   -2.0482 S.3       1 <0>         0.0275
     18 C15        -1.1674   -4.8881    0.5625 C.3       1 <0>         0.1133
     19 C16        -1.2855   -5.0064    2.0833 C.3       1 <0>        -0.1450
     20 C17        -0.0226   -5.6641    2.6433 C.3       1 <0>         0.0589
     21 N2         -0.1361   -5.7778    4.1035 N.3       1 <0>        -0.5380
     22 C18        -0.1453   -4.4512    4.7358 C.3       1 <0>         0.0557
     23 C19        -0.3443   -4.6098    6.2450 C.3       1 <0>         0.0574
     24 N3          0.7339   -5.4441    6.7937 N.3       1 <0>        -0.5305
     25 C20         0.7432   -6.7706    6.1613 C.3       1 <0>         0.0540
     26 C21         0.9422   -6.6120    4.6521 C.3       1 <0>         0.0592
     27 C22         0.6205   -5.5577    8.2539 C.3       1 <0>         0.0540
     28 C23         1.8834   -6.2154    8.8138 C.3       1 <0>         0.0794
     29 O2          3.0060   -5.3608    8.5872 O.3       1 <0>        -0.5598
     30 H1         -5.7019  -10.3881    0.7173 H         1 <0>         0.0866
     31 H2         -6.7490   -8.9920    0.3671 H         1 <0>         0.0956
     32 H3         -5.7284   -9.6833   -0.9169 H         1 <0>         0.0957
     33 H4         -6.3187   -7.4780   -1.3290 H         1 <0>         0.1421
     34 H5         -6.1449   -5.2641   -2.3732 H         1 <0>         0.1408
     35 H6         -2.8073   -6.6395    1.0009 H         1 <0>         0.1463
     36 H7         -0.9205   -2.6296    1.4633 H         1 <0>         0.1328
     37 H8         -0.8888   -0.1773    1.3127 H         1 <0>         0.1312
     38 H9         -2.3269    0.9819   -0.3133 H         1 <0>         0.1324
     39 H10        -3.8086   -0.3153   -1.7904 H         1 <0>         0.1337
     40 H11        -1.0521   -5.8813    0.1286 H         1 <0>         0.0863
     41 H12        -0.2988   -4.2790    0.3118 H         1 <0>         0.0866
     42 H13        -1.4008   -4.0132    2.5172 H         1 <0>         0.0735
     43 H14        -2.1540   -5.6155    2.3340 H         1 <0>         0.0814
     44 H15         0.0927   -6.6574    2.2094 H         1 <0>         0.0785
     45 H16         0.8459   -5.0551    2.3926 H         1 <0>         0.0381
     46 H17         0.8039   -3.9507    4.5448 H         1 <0>         0.0440
     47 H18        -0.9599   -3.8568    4.3221 H         1 <0>         0.0796
     48 H19        -0.3225   -3.6289    6.7198 H         1 <0>         0.0796
     49 H20        -1.3059   -5.0858    6.4370 H         1 <0>         0.0416
     50 H21         1.5578   -7.3650    6.5751 H         1 <0>         0.0801
     51 H22        -0.2060   -7.2712    6.3524 H         1 <0>         0.0420
     52 H23         0.9204   -7.5930    4.1774 H         1 <0>         0.0800
     53 H24         1.9038   -6.1360    4.4601 H         1 <0>         0.0441
     54 H25         0.5052   -4.5645    8.6877 H         1 <0>         0.0829
     55 H26        -0.2480   -6.1668    8.5045 H         1 <0>         0.0491
     56 H27         1.7628   -6.3806    9.8845 H         1 <0>         0.0488
     57 H28         2.0473   -7.1706    8.3150 H         1 <0>         0.0456
     58 H29         3.8430   -5.7151    8.9173 H         1 <0>         0.3752
@<TRIPOS>BOND
     1    1    2 1
     2    1   30 1
     3    1   31 1
     4    1   32 1
     5    2    3 2
     6    2    4 1
     7    4    9 ar
     8    4    5 ar
     9    5    6 ar
    10    5   33 1
    11    6    7 ar
    12    6   34 1
    13    7   17 1
    14    7    8 ar
    15    8    9 ar
    16    8   10 1
    17    9   35 1
    18   10   11 1
    19   10   18 1
    20   11   16 ar
    21   11   12 ar
    22   12   13 ar
    23   12   36 1
    24   13   14 ar
    25   13   37 1
    26   14   15 ar
    27   14   38 1
    28   15   16 ar
    29   15   39 1
    30   16   17 1
    31   18   19 1
    32   18   40 1
    33   18   41 1
    34   19   20 1
    35   19   42 1
    36   19   43 1
    37   20   21 1
    38   20   44 1
    39   20   45 1
    40   21   26 1
    41   21   22 1
    42   22   23 1
    43   22   46 1
    44   22   47 1
    45   23   24 1
    46   23   48 1
    47   23   49 1
    48   24   25 1
    49   24   27 1
    50   25   26 1
    51   25   50 1
    52   25   51 1
    53   26   52 1
    54   26   53 1
    55   27   28 1
    56   27   54 1
    57   27   55 1
    58   28   29 1
    59   28   56 1
    60   28   57 1
    61   29   58 1
@<TRIPOS>MOLECULE
ZINC22446644
   61    64     0     0     0
SMALL
USER_CHARGES

@<TRIPOS>ATOM
      1 C1          5.6497   -9.4355   -7.8940 C.3       1 <0>        -0.1455
      2 C2          4.3259   -9.1182   -7.1957 C.3       1 <0>        -0.1695
      3 C3          4.4049   -7.7512   -6.5664 C.2       1 <0>         0.3944
      4 O1          5.4205   -7.0949   -6.6667 O.2       1 <0>        -0.4457
      5 C4          3.2542   -7.2140   -5.8329 C.ar      1 <0>        -0.1354
      6 C5          2.0831   -7.9727   -5.7112 C.ar      1 <0>        -0.0894
      7 C6          1.0085   -7.4642   -5.0193 C.ar      1 <0>        -0.0746
      8 C7          1.0773   -6.1988   -4.4411 C.ar      1 <0>        -0.1234
      9 C8          2.2386   -5.4314   -4.5596 C.ar      1 <0>         0.1815
     10 C9          3.3259   -5.9433   -5.2473 C.ar      1 <0>        -0.1014
     11 N1          2.3364   -4.1574   -4.0045 N.pl3     1 <0>        -0.5641
     12 C10         1.5876   -3.7020   -2.9231 C.ar      1 <0>         0.1971
     13 C11         2.0952   -2.6672   -2.1440 C.ar      1 <0>        -0.1604
     14 C12         1.3759   -2.1878   -1.0662 C.ar      1 <0>        -0.0762
     15 C13         0.1446   -2.7327   -0.7537 C.ar      1 <0>        -0.1383
     16 C14        -0.3687   -3.7627   -1.5197 C.ar      1 <0>        -0.0566
     17 C15         0.3501   -4.2521   -2.6013 C.ar      1 <0>        -0.1599
     18 S1         -0.3126   -5.5754   -3.5557 S.3       1 <0>         0.0273
     19 C16         3.2979   -3.2283   -4.6034 C.3       1 <0>         0.1133
     20 C17         4.6520   -3.3764   -3.9067 C.3       1 <0>        -0.1449
     21 C18         5.6561   -2.4061   -4.5321 C.3       1 <0>         0.0590
     22 N2          6.9563   -2.5483   -3.8633 N.3       1 <0>        -0.5380
     23 C19         6.8784   -2.1110   -2.4624 C.3       1 <0>         0.0557
     24 C20         8.2280   -2.3488   -1.7808 C.3       1 <0>         0.0574
     25 N3          9.2748   -1.6116   -2.5022 N.3       1 <0>        -0.5304
     26 C21         9.3526   -2.0489   -3.9031 C.3       1 <0>         0.0540
     27 C22         8.0031   -1.8111   -4.5847 C.3       1 <0>         0.0593
     28 C23        10.5749   -1.7538   -1.8333 C.3       1 <0>         0.0540
     29 C24        11.5790   -0.7835   -2.4588 C.3       1 <0>         0.0794
     30 O2         11.1665    0.5603   -2.2016 O.3       1 <0>        -0.5598
     31 H1          5.8407   -8.6905   -8.6664 H         1 <0>         0.0605
     32 H2          6.4590   -9.4177   -7.1641 H         1 <0>         0.0605
     33 H3          5.5926  -10.4243   -8.3492 H         1 <0>         0.0631
     34 H4          3.5166   -9.1360   -7.9257 H         1 <0>         0.1009
     35 H5          4.1349   -9.8633   -6.4233 H         1 <0>         0.1008
     36 H6          2.0239   -8.9535   -6.1594 H         1 <0>         0.1416
     37 H7          0.1058   -8.0494   -4.9242 H         1 <0>         0.1407
     38 H8          4.2303   -5.3597   -5.3360 H         1 <0>         0.1464
     39 H9          3.0565   -2.2367   -2.3826 H         1 <0>         0.1327
     40 H10         1.7772   -1.3849   -0.4656 H         1 <0>         0.1312
     41 H11        -0.4158   -2.3542    0.0884 H         1 <0>         0.1323
     42 H12        -1.3310   -4.1879   -1.2755 H         1 <0>         0.1337
     43 H13         3.4085   -3.4536   -5.6641 H         1 <0>         0.0862
     44 H14         2.9380   -2.2063   -4.4846 H         1 <0>         0.0865
     45 H15         4.5414   -3.1512   -2.8460 H         1 <0>         0.0734
     46 H16         5.0119   -4.3984   -4.0255 H         1 <0>         0.0814
     47 H17         5.7667   -2.6313   -5.5929 H         1 <0>         0.0784
     48 H18         5.2962   -1.3841   -4.4133 H         1 <0>         0.0380
     49 H19         6.6346   -1.0492   -2.4259 H         1 <0>         0.0440
     50 H20         6.1051   -2.6800   -1.9463 H         1 <0>         0.0796
     51 H21         8.1814   -1.9984   -0.7497 H         1 <0>         0.0796
     52 H22         8.4590   -3.4139   -1.7932 H         1 <0>         0.0416
     53 H23        10.1259   -1.4799   -4.4192 H         1 <0>         0.0801
     54 H24         9.5964   -3.1106   -3.9396 H         1 <0>         0.0420
     55 H25         8.0497   -2.1615   -5.6158 H         1 <0>         0.0800
     56 H26         7.7721   -0.7460   -4.5722 H         1 <0>         0.0441
     57 H27        10.4643   -1.5285   -0.7726 H         1 <0>         0.0829
     58 H28        10.9348   -2.7758   -1.9522 H         1 <0>         0.0491
     59 H29        12.5646   -0.9505   -2.0242 H         1 <0>         0.0488
     60 H30        11.6234   -0.9503   -3.5350 H         1 <0>         0.0456
     61 H31        11.7581    1.2307   -2.5700 H         1 <0>         0.3752
@<TRIPOS>BOND
     1    1    2 1
     2    1   31 1
     3    1   32 1
     4    1   33 1
     5    2    3 1
     6    2   34 1
     7    2   35 1
     8    3    4 2
     9    3    5 1
    10    5   10 ar
    11    5    6 ar
    12    6    7 ar
    13    6   36 1
    14    7    8 ar
    15    7   37 1
    16    8   18 1
    17    8    9 ar
    18    9   10 ar
    19    9   11 1
    20   10   38 1
    21   11   12 1
    22   11   19 1
    23   12   17 ar
    24   12   13 ar
    25   13   14 ar
    26   13   39 1
    27   14   15 ar
    28   14   40 1
    29   15   16 ar
    30   15   41 1
    31   16   17 ar
    32   16   42 1
    33   17   18 1
    34   19   20 1
    35   19   43 1
    36   19   44 1
    37   20   21 1
    38   20   45 1
    39   20   46 1
    40   21   22 1
    41   21   47 1
    42   21   48 1
    43   22   27 1
    44   22   23 1
    45   23   24 1
    46   23   49 1
    47   23   50 1
    48   24   25 1
    49   24   51 1
    50   24   52 1
    51   25   26 1
    52   25   28 1
    53   26   27 1
    54   26   53 1
    55   26   54 1
    56   27   55 1
    57   27   56 1
    58   28   29 1
    59   28   57 1
    60   28   58 1
    61   29   30 1
    62   29   59 1
    63   29   60 1
    64   30   61 1
@<TRIPOS>MOLECULE
ZINC22446674
   57    60     0     0     0
SMALL
USER_CHARGES

@<TRIPOS>ATOM
      1 C1         -0.4449    1.6131   -0.4949 C.3       1 <0>        -0.1406
      2 C2         -0.3551    0.0883   -0.4062 C.3       1 <0>        -0.1074
      3 S1          0.5755   -0.5463   -1.8282 S.3       1 <0>        -0.1173
      4 C3          0.5904   -2.2911   -1.5834 C.ar      1 <0>        -0.0431
      5 C4         -0.0420   -2.8419   -0.4766 C.ar      1 <0>        -0.1461
      6 C5         -0.0309   -4.2113   -0.2885 C.ar      1 <0>        -0.0333
      7 C6          0.6112   -5.0372   -1.2000 C.ar      1 <0>        -0.1558
      8 C7          1.2509   -4.4919   -2.3099 C.ar      1 <0>         0.2070
      9 C8          1.2295   -3.1145   -2.5000 C.ar      1 <0>        -0.1486
     10 N1          1.9165   -5.2866   -3.2396 N.pl3     1 <0>        -0.5630
     11 C9          1.6468   -6.6322   -3.4752 C.ar      1 <0>         0.1845
     12 C10         1.9811   -7.1778   -4.7103 C.ar      1 <0>        -0.1643
     13 C11         1.7317   -8.5110   -4.9749 C.ar      1 <0>        -0.0801
     14 C12         1.1481   -9.3139   -4.0133 C.ar      1 <0>        -0.1280
     15 C13         0.8098   -8.7818   -2.7826 C.ar      1 <0>        -0.0547
     16 C14         1.0548   -7.4432   -2.5109 C.ar      1 <0>        -0.1487
     17 S2          0.6073   -6.7799   -0.9422 S.3       1 <0>         0.0339
     18 C15         2.9802   -4.6602   -4.0285 C.3       1 <0>         0.1210
     19 C16         2.3864   -4.0742   -5.3110 C.3       1 <0>        -0.1854
     20 C17         3.4973   -3.4201   -6.1350 C.3       1 <0>        -0.0065
     21 N2          2.9271   -2.8574   -7.3663 N.4       1 <0>        -0.3860
     22 C18         2.4070   -3.9446   -8.2060 C.3       1 <0>        -0.0074
     23 C19         1.7961   -3.3575   -9.4803 C.3       1 <0>         0.0250
     24 N3          2.8238   -2.6010  -10.2094 N.3       1 <0>        -0.5429
     25 C20         3.3716   -1.5243   -9.3722 C.3       1 <0>         0.0238
     26 C21         3.9696   -2.1265   -8.0988 C.3       1 <0>        -0.0020
     27 C22         2.2900   -2.0679  -11.4699 C.3       1 <0>         0.0192
     28 H1          0.5593    2.0371   -0.4904 H         1 <0>         0.0680
     29 H2         -0.9538    1.8941   -1.4169 H         1 <0>         0.0671
     30 H3         -1.0041    1.9945    0.3595 H         1 <0>         0.0820
     31 H4          0.1538   -0.1927    0.5158 H         1 <0>         0.0931
     32 H5         -1.3593   -0.3356   -0.4107 H         1 <0>         0.0924
     33 H6         -0.5411   -2.2018    0.2358 H         1 <0>         0.1350
     34 H7         -0.5237   -4.6401    0.5715 H         1 <0>         0.1413
     35 H8          1.7156   -2.6832   -3.3626 H         1 <0>         0.1293
     36 H9          2.4375   -6.5563   -5.4665 H         1 <0>         0.1236
     37 H10         1.9936   -8.9269   -5.9366 H         1 <0>         0.1324
     38 H11         0.9560  -10.3558   -4.2230 H         1 <0>         0.1363
     39 H12         0.3535   -9.4093   -2.0313 H         1 <0>         0.1380
     40 H13         3.4439   -3.8641   -3.4460 H         1 <0>         0.0962
     41 H14         3.7311   -5.4078   -4.2844 H         1 <0>         0.0973
     42 H15         1.9227   -4.8703   -5.8936 H         1 <0>         0.0972
     43 H16         1.6355   -3.3266   -5.0552 H         1 <0>         0.0960
     44 H17         3.9610   -2.6240   -5.5525 H         1 <0>         0.1361
     45 H18         4.2481   -4.1677   -6.3908 H         1 <0>         0.1356
     46 H19         3.2205   -4.6200   -8.4709 H         1 <0>         0.1394
     47 H20         1.6428   -4.4942   -7.6566 H         1 <0>         0.1347
     48 H21         1.4234   -4.1651  -10.1104 H         1 <0>         0.1240
     49 H22         0.9737   -2.6926   -9.2164 H         1 <0>         0.0605
     50 H23         4.1485   -0.9945   -9.9235 H         1 <0>         0.1248
     51 H24         2.5752   -0.8292   -9.1065 H         1 <0>         0.0608
     52 H25         4.3638   -1.3283   -7.4699 H         1 <0>         0.1371
     53 H26         4.7751   -2.8113   -8.3643 H         1 <0>         0.1389
     54 H27         1.4520   -1.4039  -11.2576 H         1 <0>         0.0398
     55 H28         3.0710   -1.5125  -11.9892 H         1 <0>         0.0844
     56 H29         1.9509   -2.8916  -12.0981 H         1 <0>         0.0846
     57 H30         2.1761   -2.2260   -7.1311 H         1 <0>         0.4212
@<TRIPOS>BOND
     1    1    2 1
     2    1   28 1
     3    1   29 1
     4    1   30 1
     5    2    3 1
     6    2   31 1
     7    2   32 1
     8    3    4 1
     9    4    9 ar
    10    4    5 ar
    11    5    6 ar
    12    5   33 1
    13    6    7 ar
    14    6   34 1
    15    7   17 1
    16    7    8 ar
    17    8    9 ar
    18    8   10 1
    19    9   35 1
    20   10   11 1
    21   10   18 1
    22   11   16 ar
    23   11   12 ar
    24   12   13 ar
    25   12   36 1
    26   13   14 ar
    27   13   37 1
    28   14   15 ar
    29   14   38 1
    30   15   16 ar
    31   15   39 1
    32   16   17 1
    33   18   19 1
    34   18   40 1
    35   18   41 1
    36   19   20 1
    37   19   42 1
    38   19   43 1
    39   20   21 1
    40   20   44 1
    41   20   45 1
    42   21   26 1
    43   21   22 1
    44   21   57 1
    45   22   23 1
    46   22   46 1
    47   22   47 1
    48   23   24 1
    49   23   48 1
    50   23   49 1
    51   24   25 1
    52   24   27 1
    53   25   26 1
    54   25   50 1
    55   25   51 1
    56   26   52 1
    57   26   53 1
    58   27   54 1
    59   27   55 1
    60   27   56 1
@<TRIPOS>MOLECULE
ZINC00056659
   31    32     0     0     0
SMALL
USER_CHARGES

@<TRIPOS>ATOM
      1 C1         -0.0184    1.5028    0.0103 C.3       1 <0>        -0.0680
      2 C2          0.0021   -0.0041    0.0020 C.2       1 <0>        -0.2645
      3 C3         -1.0799   -0.8076    0.0026 C.2       1 <0>         0.2052
      4 N1         -0.6628   -2.0984   -0.0063 N.pl3     1 <0>        -0.5330
      5 O1          0.7540   -2.1017   -0.0128 O.3       1 <0>        -0.1035
      6 C4          1.1593   -0.8157   -0.0139 C.2       1 <0>         0.4764
      7 N2          2.4050   -0.3932   -0.0247 N.2       1 <0>        -0.9368
      8 S1          3.6496   -1.4855   -0.0429 S.o2      1 <0>         2.6285
      9 O2          3.6043   -2.1734    1.1997 O.2       1 <0>        -0.9826
     10 O3          3.5786   -2.1613   -1.2908 O.2       1 <0>        -0.9826
     11 C5          5.1513   -0.5639   -0.0539 C.ar      1 <0>        -0.6932
     12 C6          5.7239   -0.1924   -1.2565 C.ar      1 <0>         0.0303
     13 C7          6.9009    0.5299   -1.2688 C.ar      1 <0>        -0.2178
     14 C8          7.5096    0.8833   -0.0712 C.ar      1 <0>         0.2672
     15 C9          6.9317    0.5085    1.1351 C.ar      1 <0>        -0.2179
     16 C10         5.7516   -0.2089    1.1402 C.ar      1 <0>         0.0303
     17 N3          8.7003    1.6134   -0.0800 N.pl3     1 <0>        -0.8668
     18 C11        -2.5151   -0.3483    0.0125 C.3       1 <0>        -0.1055
     19 H1          1.0042    1.8801    0.0026 H         1 <0>         0.0837
     20 H2         -0.5455    1.8639   -0.8728 H         1 <0>         0.0674
     21 H3         -0.5286    1.8543    0.9071 H         1 <0>         0.0675
     22 H4          5.2503   -0.4678   -2.1873 H         1 <0>         0.1389
     23 H5          7.3478    0.8195   -2.2084 H         1 <0>         0.1312
     24 H6          7.4026    0.7813    2.0680 H         1 <0>         0.1312
     25 H7          5.2995   -0.4969    2.0778 H         1 <0>         0.1390
     26 H8          9.1031    1.8743   -0.9229 H         1 <0>         0.4030
     27 H9          9.1244    1.8596    0.7569 H         1 <0>         0.4030
     28 H10        -2.8663   -0.2314   -1.0127 H         1 <0>         0.1047
     29 H11        -3.1299   -1.0882    0.5250 H         1 <0>         0.0885
     30 H12        -2.5873    0.6070    0.5324 H         1 <0>         0.1077
     31 H13        -1.2345   -2.8820   -0.0076 H         1 <0>         0.4685
@<TRIPOS>BOND
     1    1    2 1
     2    1   19 1
     3    1   20 1
     4    1   21 1
     5    2    6 1
     6    2    3 2
     7    3    4 1
     8    3   18 1
     9    4    5 1
    10    4   31 1
    11    5    6 1
    12    6    7 2
    13    7    8 1
    14    8    9 2
    15    8   10 2
    16    8   11 1
    17   11   16 ar
    18   11   12 ar
    19   12   13 ar
    20   12   22 1
    21   13   14 ar
    22   13   23 1
    23   14   15 ar
    24   14   17 1
    25   15   16 ar
    26   15   24 1
    27   16   25 1
    28   17   26 1
    29   17   27 1
    30   18   28 1
    31   18   29 1
    32   18   30 1
@<TRIPOS>MOLECULE
ZINC03830609
   45    47     0     0     0
SMALL
USER_CHARGES

@<TRIPOS>ATOM
      1 C1         -0.0138    1.5273    0.0139 C.3       1 <0>        -0.1245
      2 C2          0.0063   -0.0026    0.0047 C.3       1 <0>         0.0322
      3 C3         -1.4109   -0.5950    0.2512 C.3       1 <0>         0.0313
      4 H1         -1.4371   -1.6222   -0.1126 H         1 <0>         0.0675
      5 N1         -1.7504   -0.5813    1.6776 N.am      1 <0>        -0.5061
      6 C4         -0.6200   -0.6800    2.6109 C.3       1 <0>         0.1058
      7 H2         -0.5956    0.0494    3.4206 H         1 <0>         0.1541
      8 S1          0.8501   -0.6810    1.5040 S.3       1 <0>        -0.3052
      9 C5         -1.1201   -2.0641    2.9849 C.3       1 <0>         0.0814
     10 H3         -1.3035   -2.1970    4.0511 H         1 <0>         0.1375
     11 C6         -2.3371   -1.6758    2.1993 C.2       1 <0>         0.4943
     12 O1         -3.4400   -2.1656    2.0784 O.2       1 <0>        -0.4363
     13 N2         -0.3469   -3.1583    2.3923 N.am      1 <0>        -0.6961
     14 C7         -0.3234   -4.3668    2.9886 C.2       1 <0>         0.4903
     15 O2         -0.9422   -4.5484    4.0157 O.2       1 <0>        -0.5198
     16 C8          0.4720   -5.4924    2.3790 C.3       1 <0>         0.1132
     17 C9         -0.0384   -6.8292    2.9208 C.3       1 <0>        -0.0880
     18 C10         0.1214   -6.8573    4.4422 C.3       1 <0>        -0.1461
     19 C11         1.5990   -6.6915    4.8029 C.3       1 <0>        -0.1151
     20 C12         2.1093   -5.3547    4.2612 C.3       1 <0>        -0.1220
     21 C13         1.9495   -5.3266    2.7398 C.3       1 <0>        -0.1028
     22 N3          0.3185   -5.4654    0.9183 N.3       1 <0>        -0.8300
     23 C14        -2.4266    0.2226   -0.5044 C.2       1 <0>         0.5136
     24 O3         -2.7202   -0.0765   -1.6493 O.co2     1 <0>        -0.6845
     25 O4         -2.9548    1.1831    0.0293 O.co2     1 <0>        -0.6569
     26 C15         0.6277   -0.5440   -1.2843 C.3       1 <0>        -0.1231
     27 H4          1.0089    1.9041    0.0072 H         1 <0>         0.0587
     28 H5         -0.5402    1.8891   -0.8693 H         1 <0>         0.0773
     29 H6         -0.5246    1.8785    0.9105 H         1 <0>         0.0720
     30 H7          0.1480   -3.0131    1.5708 H         1 <0>         0.4094
     31 H8         -1.0910   -6.9473    2.6638 H         1 <0>         0.0630
     32 H9          0.5369   -7.6433    2.4799 H         1 <0>         0.0759
     33 H10        -0.4538   -6.0432    4.8831 H         1 <0>         0.1093
     34 H11        -0.2422   -7.8097    4.8281 H         1 <0>         0.0572
     35 H12         1.7128   -6.7115    5.8868 H         1 <0>         0.0597
     36 H13         2.1742   -7.5056    4.3621 H         1 <0>         0.0578
     37 H14         1.5341   -4.5406    4.7021 H         1 <0>         0.0634
     38 H15         3.1620   -5.2366    4.5182 H         1 <0>         0.0661
     39 H16         2.5248   -6.1407    2.2989 H         1 <0>         0.0844
     40 H17         2.3131   -4.3742    2.3539 H         1 <0>         0.0674
     41 H18        -0.6493   -5.5731    0.6543 H         1 <0>         0.3500
     42 H19         1.6485   -0.1737   -1.3790 H         1 <0>         0.0672
     43 H20         0.6378   -1.6335   -1.2531 H         1 <0>         0.0633
     44 H21         0.0394   -0.2105   -2.1392 H         1 <0>         0.0896
     45 H22         0.7073   -4.6194    0.5295 H         1 <0>         0.3436
@<TRIPOS>BOND
     1    1    2 1
     2    1   27 1
     3    1   28 1
     4    1   29 1
     5    2    8 1
     6    2    3 1
     7    2   26 1
     8    3    4 1
     9    3    5 1
    10    3   23 1
    11    5   11 am
    12    5    6 1
    13    6    7 1
    14    6    8 1
    15    6    9 1
    16    9   10 1
    17    9   11 1
    18    9   13 1
    19   11   12 2
    20   13   14 am
    21   13   30 1
    22   14   15 2
    23   14   16 1
    24   16   21 1
    25   16   17 1
    26   16   22 1
    27   17   18 1
    28   17   31 1
    29   17   32 1
    30   18   19 1
    31   18   33 1
    32   18   34 1
    33   19   20 1
    34   19   35 1
    35   19   36 1
    36   20   21 1
    37   20   37 1
    38   20   38 1
    39   21   39 1
    40   21   40 1
    41   22   41 1
    42   22   45 1
    43   23   24 2
    44   23   25 1
    45   26   42 1
    46   26   43 1
    47   26   44 1
@<TRIPOS>MOLECULE
ZINC35018256
   54    58     0     0     0
SMALL
USER_CHARGES

@<TRIPOS>ATOM
      1 C1         -0.0187    1.5258    0.0104 C.3       1 <0>        -0.1661
      2 C2          0.0021   -0.0041    0.0020 C.3       1 <0>        -0.1434
      3 C3          0.7182   -0.4975   -1.2568 C.3       1 <0>         0.1362
      4 C4          0.7571   -2.0049   -1.2585 C.2       1 <0>         0.0715
      5 C5         -0.4188   -2.7125   -1.4876 C.2       1 <0>        -0.1274
      6 C6         -0.4023   -4.0989   -1.4819 C.2       1 <0>         0.2856
      7 C7         -1.5040   -5.0666   -1.6951 C.ar      1 <0>        -0.0252
      8 C8         -0.9740   -6.3632   -1.5851 C.ar      1 <0>        -0.1244
      9 C9         -1.7651   -7.4591   -1.7353 C.ar      1 <0>        -0.0934
     10 C10        -3.1340   -7.2557   -2.0042 C.ar      1 <0>         0.0126
     11 C11        -4.0223   -8.3216   -2.1723 C.2       1 <0>        -0.2323
     12 C12        -5.3600   -8.0546   -2.4350 C.2       1 <0>         0.3360
     13 O1         -6.2154   -9.0705   -2.5965 O.2       1 <0>        -0.5945
     14 C13        -5.8289   -6.7310   -2.5333 C.2       1 <0>        -0.1672
     15 C14        -4.9993   -5.6706   -2.3771 C.2       1 <0>        -0.0416
     16 C15        -3.6315   -5.8817   -2.1084 C.ar      1 <0>         0.0703
     17 N1         -2.7890   -4.8649   -1.9493 N.ar      1 <0>        -0.3655
     18 C16        -3.5346   -9.7438   -2.0702 C.3       1 <0>         0.1261
     19 N2         -3.6413  -10.1993   -0.6777 N.3       1 <0>        -0.5360
     20 C17        -3.4019  -11.6451   -0.5769 C.3       1 <0>         0.0267
     21 C18        -2.7236   -9.4518    0.1925 C.3       1 <0>         0.0247
     22 C19         0.4978   -6.2062   -1.2965 C.3       1 <0>         0.1247
     23 N3          0.7616   -4.7615   -1.2517 N.pl3     1 <0>        -0.4062
     24 C20         1.9078   -4.0856   -1.0322 C.2       1 <0>         0.4309
     25 C21         1.9314   -2.6965   -1.0358 C.2       1 <0>        -0.2603
     26 C22         3.2439   -1.9938   -0.8126 C.3       1 <0>         0.1288
     27 O2          3.0318   -0.6193   -0.4872 O.3       1 <0>        -0.3485
     28 C23         2.1374    0.0244   -1.2704 C.2       1 <0>         0.4695
     29 O3          2.4567    0.9719   -1.9488 O.2       1 <0>        -0.4045
     30 O4          3.0497   -4.7693   -0.8052 O.3       1 <0>        -0.4397
     31 O5          0.0250   -0.0316   -2.4163 O.3       1 <0>        -0.5193
     32 H1          1.0039    1.9031    0.0027 H         1 <0>         0.0605
     33 H2         -0.5459    1.8868   -0.8726 H         1 <0>         0.0676
     34 H3         -0.5289    1.8773    0.9072 H         1 <0>         0.0805
     35 H4          0.5293   -0.3651    0.8851 H         1 <0>         0.0913
     36 H5         -1.0205   -0.3814    0.0098 H         1 <0>         0.1023
     37 H6         -1.3425   -2.1831   -1.6692 H         1 <0>         0.1871
     38 H7         -1.3569   -8.4554   -1.6514 H         1 <0>         0.1386
     39 H8         -6.8747   -6.5562   -2.7385 H         1 <0>         0.1312
     40 H9         -5.3855   -4.6653   -2.4583 H         1 <0>         0.1333
     41 H10        -4.1433  -10.3834   -2.7093 H         1 <0>         0.0869
     42 H11        -2.4940   -9.7949   -2.3905 H         1 <0>         0.0258
     43 H12        -2.4014  -11.8742   -0.9439 H         1 <0>         0.0189
     44 H13        -3.4869  -11.9558    0.4644 H         1 <0>         0.0647
     45 H14        -4.1397  -12.1782   -1.1765 H         1 <0>         0.0701
     46 H15        -2.9684   -8.3904    0.1522 H         1 <0>         0.0692
     47 H16        -2.8230   -9.8089    1.2175 H         1 <0>         0.0612
     48 H17        -1.6986   -9.6014   -0.1466 H         1 <0>         0.0163
     49 H18         0.7410   -6.6606   -0.3361 H         1 <0>         0.1348
     50 H19         1.0856   -6.6691   -2.0892 H         1 <0>         0.1344
     51 H20         3.7760   -2.4786    0.0059 H         1 <0>         0.1315
     52 H21         3.8450   -2.0594   -1.7195 H         1 <0>         0.1029
     53 H22         3.8223   -4.2067   -0.6579 H         1 <0>         0.4399
     54 H23        -0.0311    0.9317   -2.4804 H         1 <0>         0.4032
@<TRIPOS>BOND
     1    1    2 1
     2    1   32 1
     3    1   33 1
     4    1   34 1
     5    2    3 1
     6    2   35 1
     7    2   36 1
     8    3   28 1
     9    3    4 1
    10    3   31 1
    11    4   25 1
    12    4    5 2
    13    5    6 1
    14    5   37 1
    15    6   23 1
    16    6    7 2
    17    7   17 ar
    18    7    8 ar
    19    8    9 ar
    20    8   22 1
    21    9   10 ar
    22    9   38 1
    23   10   16 ar
    24   10   11 2
    25   11   12 1
    26   11   18 1
    27   12   13 2
    28   12   14 1
    29   14   15 2
    30   14   39 1
    31   15   16 1
    32   15   40 1
    33   16   17 ar
    34   18   19 1
    35   18   41 1
    36   18   42 1
    37   19   20 1
    38   19   21 1
    39   20   43 1
    40   20   44 1
    41   20   45 1
    42   21   46 1
    43   21   47 1
    44   21   48 1
    45   22   23 1
    46   22   49 1
    47   22   50 1
    48   23   24 1
    49   24   25 2
    50   24   30 1
    51   25   26 1
    52   26   27 1
    53   26   51 1
    54   26   52 1
    55   27   28 1
    56   28   29 2
    57   30   53 1
    58   31   54 1
@<TRIPOS>MOLECULE
ZINC03830254
   42    43     0     0     0
SMALL
USER_CHARGES

@<TRIPOS>ATOM
      1 C1         -0.0184    1.5028    0.0103 C.3       1 <0>        -0.1458
      2 C2          0.0021   -0.0041    0.0020 C.2       1 <0>         0.4595
      3 O1          1.0565   -0.5939   -0.0112 O.2       1 <0>        -0.5146
      4 O2         -1.1511   -0.6910    0.0093 O.3       1 <0>        -0.3415
      5 C3         -1.0570   -2.1168    0.0008 C.3       1 <0>         0.0711
      6 C4         -2.4627   -2.7208    0.0110 C.3       1 <0>         0.0660
      7 H1         -3.0414   -2.3291    0.8475 H         1 <0>         0.1079
      8 C5         -2.3916   -4.2679    0.0734 C.3       1 <0>         0.0708
      9 H2         -2.3178   -4.6126    1.1048 H         1 <0>         0.1187
     10 C6         -3.7467   -4.6803   -0.5513 C.3       1 <0>         0.0627
     11 H3         -4.4760   -4.8981    0.2291 H         1 <0>         0.1246
     12 C7         -4.1794   -3.4448   -1.3643 C.3       1 <0>         0.2974
     13 H4         -5.1115   -3.0457   -0.9642 H         1 <0>         0.1346
     14 O3         -3.1366   -2.4613   -1.2393 O.3       1 <0>        -0.3484
     15 N1         -4.3583   -3.8120   -2.7712 N.am      1 <0>        -0.4012
     16 C8         -5.4426   -3.3713   -3.4343 C.2       1 <0>         0.6218
     17 O4         -6.2621   -2.6740   -2.8596 O.2       1 <0>        -0.5844
     18 N2         -5.6280   -3.6918   -4.7187 N.2       1 <0>        -0.6320
     19 C9         -4.7294   -4.4502   -5.3306 C.2       1 <0>         0.4365
     20 O5         -4.8861   -4.7924   -6.6286 O.3       1 <0>        -0.6585
     21 C10        -3.6043   -4.8936   -4.5999 C.2       1 <0>        -0.0327
     22 N3         -3.4724   -4.5449   -3.3487 N.2       1 <0>        -0.1758
     23 O6         -3.5790   -5.8121   -1.4074 O.3       1 <0>        -0.2907
     24 C11        -4.6229   -6.6478   -1.5242 C.2       1 <0>         0.4529
     25 O7         -5.6452   -6.4257   -0.9196 O.2       1 <0>        -0.5120
     26 C12        -4.5199   -7.8630   -2.4095 C.3       1 <0>        -0.1443
     27 O8         -1.2994   -4.7600   -0.7056 O.3       1 <0>        -0.3023
     28 C13        -0.1268   -4.9269   -0.0740 C.2       1 <0>         0.4560
     29 O9         -0.0309   -4.6639    1.1014 O.2       1 <0>        -0.5169
     30 C14         1.0701   -5.4424   -0.8308 C.3       1 <0>        -0.1467
     31 H5          1.0042    1.8801    0.0026 H         1 <0>         0.1011
     32 H6         -0.5455    1.8639   -0.8728 H         1 <0>         0.1025
     33 H7         -0.5286    1.8543    0.9071 H         1 <0>         0.1004
     34 H8         -0.5289   -2.4407   -0.8960 H         1 <0>         0.0798
     35 H9         -0.5119   -2.4503    0.8838 H         1 <0>         0.0948
     36 H10        -2.8569   -5.5126   -5.0740 H         1 <0>         0.1743
     37 H11        -3.7096   -8.5014   -2.0573 H         1 <0>         0.1001
     38 H12        -5.4584   -8.4163   -2.3777 H         1 <0>         0.1001
     39 H13        -4.3170   -7.5502   -3.4338 H         1 <0>         0.1052
     40 H14         1.6238   -4.6026   -1.2507 H         1 <0>         0.1064
     41 H15         1.7158   -6.0007   -0.1530 H         1 <0>         0.1026
     42 H16         0.7365   -6.0967   -1.6362 H         1 <0>         0.0998
@<TRIPOS>BOND
     1    1    2 1
     2    1   31 1
     3    1   32 1
     4    1   33 1
     5    2    3 2
     6    2    4 1
     7    4    5 1
     8    5    6 1
     9    5   34 1
    10    5   35 1
    11    6    7 1
    12    6   14 1
    13    6    8 1
    14    8    9 1
    15    8   10 1
    16    8   27 1
    17   10   11 1
    18   10   12 1
    19   10   23 1
    20   12   13 1
    21   12   14 1
    22   12   15 1
    23   15   22 1
    24   15   16 am
    25   16   17 2
    26   16   18 1
    27   18   19 2
    28   19   20 1
    29   19   21 1
    30   21   22 2
    31   21   36 1
    32   23   24 1
    33   24   25 2
    34   24   26 1
    35   26   37 1
    36   26   38 1
    37   26   39 1
    38   27   28 1
    39   28   29 2
    40   28   30 1
    41   30   40 1
    42   30   41 1
    43   30   42 1
@<TRIPOS>MOLECULE
ZINC03830180
   36    38     0     0     0
SMALL
USER_CHARGES

@<TRIPOS>ATOM
      1 C1         -0.0158    1.3119    0.0093 C.ar      1 <0>         0.3540
      2 N1          1.0888    2.0360    0.0026 N.ar      1 <0>        -0.5960
      3 C2          2.2875    1.4625   -0.0119 C.ar      1 <0>         0.5050
      4 C3          2.3582    0.0588   -0.0202 C.ar      1 <0>        -0.1006
      5 C4          1.1547   -0.6659   -0.0126 C.ar      1 <0>         0.3030
      6 N2          0.0021   -0.0041    0.0020 N.ar      1 <0>        -0.5588
      7 N3          1.5110   -1.9908   -0.0227 N.pl3     1 <0>        -0.4513
      8 C5          2.8729   -2.0476   -0.0358 C.2       1 <0>         0.2983
      9 N4          3.3680   -0.8441   -0.0343 N.2       1 <0>        -0.4751
     10 C6          0.5956   -3.1347   -0.0195 C.3       1 <0>         0.3090
     11 H1         -0.2948   -2.9088   -0.6062 H         1 <0>         0.1200
     12 C7          0.2056   -3.5073    1.4281 C.3       1 <0>         0.0338
     13 H2         -0.7650   -3.0823    1.6836 H         1 <0>         0.0895
     14 C8          0.1336   -5.0506    1.4120 C.3       1 <0>         0.0461
     15 H3         -0.8727   -5.3886    1.6595 H         1 <0>         0.0904
     16 C9          0.4885   -5.4278   -0.0434 C.3       1 <0>         0.0862
     17 H4         -0.4185   -5.5556   -0.6343 H         1 <0>         0.1016
     18 O1          1.2562   -4.3087   -0.5401 O.3       1 <0>        -0.3428
     19 C10         1.3266   -6.7075   -0.0727 C.3       1 <0>         0.1540
     20 O2          1.5454   -7.1027   -1.4284 O.3       1 <0>        -0.7593
     21 P1          2.3911   -8.4111   -1.8348 P.3       1 <0>         2.2125
     22 O3          1.7965   -9.6490   -1.1269 O.2       1 <0>        -1.1089
     23 O4          2.3226   -8.6204   -3.4297 O.3       1 <0>        -0.8975
     24 O5          3.8629   -8.2278   -1.4022 O.3       1 <0>        -1.1044
     25 O6          1.0849   -5.6059    2.3223 O.3       1 <0>        -0.5280
     26 O7          1.2044   -3.0595    2.3467 O.3       1 <0>        -0.5305
     27 N5          3.4393    2.2295   -0.0193 N.pl3     1 <0>        -0.8207
     28 H5         -0.9693    1.8187    0.0257 H         1 <0>         0.2016
     29 H6          3.4551   -2.9572   -0.0459 H         1 <0>         0.2238
     30 H7          2.2858   -6.5248    0.4118 H         1 <0>         0.0736
     31 H8          0.7977   -7.5004    0.4561 H         1 <0>         0.0757
     32 H9          0.9424   -5.3509    3.2441 H         1 <0>         0.3754
     33 H10         1.0102   -3.2674    3.2710 H         1 <0>         0.3791
     34 H11         3.3774    3.1975   -0.0138 H         1 <0>         0.4078
     35 H12         4.3085    1.7992   -0.0299 H         1 <0>         0.4188
     36 H13         2.8113   -9.3923   -3.7464 H         1 <0>         0.4147
@<TRIPOS>BOND
     1    1    6 ar
     2    1    2 ar
     3    1   28 1
     4    2    3 ar
     5    3    4 ar
     6    3   27 1
     7    4    9 1
     8    4    5 ar
     9    5    6 ar
    10    5    7 1
    11    7    8 1
    12    7   10 1
    13    8    9 2
    14    8   29 1
    15   10   11 1
    16   10   18 1
    17   10   12 1
    18   12   13 1
    19   12   14 1
    20   12   26 1
    21   14   15 1
    22   14   16 1
    23   14   25 1
    24   16   17 1
    25   16   18 1
    26   16   19 1
    27   19   20 1
    28   19   30 1
    29   19   31 1
    30   20   21 1
    31   21   22 2
    32   21   23 1
    33   21   24 1
    34   23   36 1
    35   25   32 1
    36   26   33 1
    37   27   34 1
    38   27   35 1
@<TRIPOS>MOLECULE
ZINC03826253
   54    58     0     0     0
SMALL
USER_CHARGES

@<TRIPOS>ATOM
      1 C1          1.6776   -0.6973    1.2241 C.3       1 <0>        -0.0048
      2 O1          0.8074   -0.9781    0.1258 O.3       1 <0>        -0.3102
      3 C2          1.3921   -1.2124   -1.0824 C.2       1 <0>        -0.0333
      4 C3          1.6256   -0.1678   -1.9548 C.2       1 <0>         0.2337
      5 C4          2.2352   -0.4261   -3.2097 C.2       1 <0>        -0.1576
      6 C5          2.6002   -1.7416   -3.5626 C.2       1 <0>        -0.0022
      7 C6          2.3691   -2.7648   -2.7030 C.2       1 <0>         0.0205
      8 C7          1.7666   -2.5201   -1.4455 C.2       1 <0>         0.2860
      9 N1          1.5486   -3.5332   -0.6034 N.pl3     1 <0>        -0.5956
     10 C8          2.0428   -4.9158   -0.7728 C.3       1 <0>         0.0810
     11 C9          2.0575   -5.4863    0.6568 C.3       1 <0>        -0.1049
     12 H1          2.9299   -5.1087    1.1901 H         1 <0>         0.1289
     13 C10         2.0638   -6.9956    0.6845 C.3       1 <0>        -0.1298
     14 C11         0.7414   -7.5655    0.1683 C.3       1 <0>        -0.1496
     15 C12        -0.3904   -6.9626    1.0098 C.3       1 <0>        -0.0124
     16 N2         -0.4216   -5.5183    0.7766 N.4       1 <0>        -0.4981
     17 C13         0.7797   -4.8816    1.2685 C.3       1 <0>         0.0120
     18 H2          0.8121   -4.8681    2.3579 H         1 <0>         0.1738
     19 C14         0.7818   -3.4564    0.6504 C.3       1 <0>         0.0689
     20 F1          2.7201   -4.0234   -3.0466 F         1 <0>        -0.1213
     21 C15         2.4680    0.6435   -4.0890 C.2       1 <0>         0.3626
     22 O2          3.0455    0.4336   -5.2911 O.3       1 <0>        -0.4290
     23 C16         2.0841    1.9471   -3.6893 C.2       1 <0>        -0.2922
     24 C17         1.4922    2.1454   -2.4526 C.2       1 <0>         0.2460
     25 N3          1.2709    1.1240   -1.6142 N.pl3     1 <0>        -0.4031
     26 C18         0.6415    1.3803   -0.3163 C.3       1 <0>        -0.0034
     27 C19         0.2410    2.8221    0.0023 C.3       1 <0>        -0.1686
     28 C20         1.4403    2.1874    0.7091 C.3       1 <0>        -0.1749
     29 C21         2.3140    3.0879   -4.5854 C.2       1 <0>         0.5387
     30 O3          2.0854    4.2261   -4.1980 O.co2     1 <0>        -0.6317
     31 O4          2.7343    2.9003   -5.7195 O.co2     1 <0>        -0.6505
     32 H3          2.2906   -1.5735    1.4351 H         1 <0>         0.0544
     33 H4          2.3220    0.1446    0.9710 H         1 <0>         0.0690
     34 H5          1.0838   -0.4488    2.1037 H         1 <0>         0.1113
     35 H6          3.0640   -1.9346   -4.5187 H         1 <0>         0.1779
     36 H7          1.3650   -5.4887   -1.4056 H         1 <0>         0.0884
     37 H8          3.0485   -4.9130   -1.1931 H         1 <0>         0.1185
     38 H9          2.8784   -7.3607    0.0590 H         1 <0>         0.1030
     39 H10         2.2225   -7.3332    1.7087 H         1 <0>         0.0952
     40 H11         0.6068   -7.2950   -0.8790 H         1 <0>         0.0899
     41 H12         0.7412   -8.6504    0.2729 H         1 <0>         0.1214
     42 H13        -1.3423   -7.4024    0.7124 H         1 <0>         0.1396
     43 H14        -0.2064   -7.1593    2.0660 H         1 <0>         0.1370
     44 H15        -0.5048   -5.3465   -0.2142 H         1 <0>         0.4255
     45 H16         1.2562   -2.7525    1.3342 H         1 <0>         0.1270
     46 H17        -0.2409   -3.1418    0.4424 H         1 <0>         0.1064
     47 H18         1.2035    3.1437   -2.1583 H         1 <0>         0.2099
     48 H19        -0.0011    0.5843    0.0599 H         1 <0>         0.1906
     49 H20         0.4457    3.5801   -0.7538 H         1 <0>         0.1174
     50 H21        -0.6654    2.9750    0.5881 H         1 <0>         0.1288
     51 H22         1.3229    1.9226    1.7599 H         1 <0>         0.1223
     52 H23         2.4341    2.5277    0.4180 H         1 <0>         0.1110
     53 H24        -1.2243   -5.1263    1.2459 H         1 <0>         0.4346
     54 H25         3.0863    1.2212   -5.8507 H         1 <0>         0.4417
@<TRIPOS>BOND
     1    1    2 1
     2    1   32 1
     3    1   33 1
     4    1   34 1
     5    2    3 1
     6    3    8 1
     7    3    4 2
     8    4   25 1
     9    4    5 1
    10    5    6 1
    11    5   21 2
    12    6    7 2
    13    6   35 1
    14    7    8 1
    15    7   20 1
    16    8    9 2
    17    9   19 1
    18    9   10 1
    19   10   11 1
    20   10   36 1
    21   10   37 1
    22   11   12 1
    23   11   17 1
    24   11   13 1
    25   13   14 1
    26   13   38 1
    27   13   39 1
    28   14   15 1
    29   14   40 1
    30   14   41 1
    31   15   16 1
    32   15   42 1
    33   15   43 1
    34   16   17 1
    35   16   44 1
    36   16   53 1
    37   17   18 1
    38   17   19 1
    39   19   45 1
    40   19   46 1
    41   21   22 1
    42   21   23 1
    43   22   54 1
    44   23   24 2
    45   23   29 1
    46   24   25 1
    47   24   47 1
    48   25   26 1
    49   26   28 1
    50   26   27 1
    51   26   48 1
    52   27   28 1
    53   27   49 1
    54   27   50 1
    55   28   51 1
    56   28   52 1
    57   29   30 2
    58   29   31 1
@<TRIPOS>MOLECULE
ZINC29489118
   55    58     0     0     0
SMALL
USER_CHARGES

@<TRIPOS>ATOM
      1 C1         -0.1596    1.3933   -0.4927 C.ar      1 <0>        -0.1073
      2 C2         -0.4000    2.0397   -1.6938 C.ar      1 <0>        -0.1042
      3 C3         -0.4040    1.3300   -2.8758 C.ar      1 <0>        -0.0862
      4 C4         -0.1656   -0.0432   -2.8731 C.ar      1 <0>        -0.1129
      5 C5          0.0778   -0.6958   -1.6635 C.ar      1 <0>        -0.0299
      6 C6          0.0782    0.0362   -0.4724 C.ar      1 <0>        -0.1019
      7 C7          0.3387   -2.1464   -1.6106 C.2       1 <0>        -0.0716
      8 C8          0.1146   -2.8035   -0.4626 C.2       1 <0>        -0.1078
      9 C9         -0.0381   -4.3028   -0.4701 C.3       1 <0>        -0.1068
     10 C10        -1.3277   -4.6877    0.2576 C.3       1 <0>         0.0618
     11 N1         -1.4765   -6.1492    0.2503 N.3       1 <0>        -0.5391
     12 C11        -1.6864   -6.6504   -1.1151 C.3       1 <0>         0.0559
     13 C12        -1.7569   -8.1790   -1.0893 C.3       1 <0>         0.0581
     14 N2         -2.8499   -8.6015   -0.2025 N.3       1 <0>        -0.5307
     15 C13        -2.6400   -8.1003    1.1629 C.3       1 <0>         0.0543
     16 C14        -2.5695   -6.5717    1.1371 C.3       1 <0>         0.0591
     17 C15        -2.9987  -10.0630   -0.2098 C.3       1 <0>         0.0540
     18 C16        -4.2883  -10.4479    0.5179 C.3       1 <0>         0.0795
     19 O1         -5.4127   -9.9498   -0.2098 O.3       1 <0>        -0.5595
     20 C17         0.8372   -2.8993   -2.7767 C.ar      1 <0>        -0.0409
     21 C18         1.5050   -4.1093   -2.5664 C.ar      1 <0>        -0.0528
     22 C19         1.9825   -4.8328   -3.6375 C.ar      1 <0>        -0.1846
     23 C20         1.8035   -4.3646   -4.9286 C.ar      1 <0>        -0.0516
     24 C21         1.1468   -3.1729   -5.1504 C.ar      1 <0>        -0.0958
     25 C22         0.6563   -2.4294   -4.0785 C.ar      1 <0>        -0.0737
     26 S1         -0.1799   -0.9165   -4.3987 S.3       1 <0>         0.0565
     27 C23         2.7014   -6.1364   -3.4035 C.3       1 <0>         0.5104
     28 F1          1.7765   -7.1861   -3.4060 F         1 <0>        -0.1735
     29 F2          3.6406   -6.3401   -4.4202 F         1 <0>        -0.1747
     30 F3          3.3546   -6.0934   -2.1671 F         1 <0>        -0.1752
     31 H1         -0.1541    1.9550    0.4297 H         1 <0>         0.1316
     32 H2         -0.5854    3.1036   -1.7045 H         1 <0>         0.1334
     33 H3         -0.5931    1.8407   -3.8084 H         1 <0>         0.1336
     34 H4          0.2656   -0.4635    0.4665 H         1 <0>         0.1314
     35 H5          0.0435   -2.2581    0.4668 H         1 <0>         0.1306
     36 H6         -0.0817   -4.6584   -1.4995 H         1 <0>         0.0841
     37 H7          0.8139   -4.7573    0.0355 H         1 <0>         0.0906
     38 H8         -1.2841   -4.3321    1.2870 H         1 <0>         0.0787
     39 H9         -2.1797   -4.2333   -0.2480 H         1 <0>         0.0388
     40 H10        -2.6201   -6.2499   -1.5100 H         1 <0>         0.0440
     41 H11        -0.8579   -6.3352   -1.7495 H         1 <0>         0.0790
     42 H12        -1.9414   -8.5516   -2.0969 H         1 <0>         0.0800
     43 H13        -0.8131   -8.5804   -0.7200 H         1 <0>         0.0427
     44 H14        -3.4684   -8.4155    1.7973 H         1 <0>         0.0798
     45 H15        -1.7063   -8.5008    1.5578 H         1 <0>         0.0419
     46 H16        -2.3850   -6.1991    2.1447 H         1 <0>         0.0797
     47 H17        -3.5132   -6.1703    0.7678 H         1 <0>         0.0442
     48 H18        -3.0423  -10.4186   -1.2392 H         1 <0>         0.0832
     49 H19        -2.1467  -10.5175    0.2958 H         1 <0>         0.0493
     50 H20        -4.3544  -11.5335    0.5904 H         1 <0>         0.0486
     51 H21        -4.2833  -10.0166    1.5189 H         1 <0>         0.0453
     52 H22        -6.2662  -10.1574    0.1946 H         1 <0>         0.3749
     53 H23         1.6475   -4.4779   -1.5613 H         1 <0>         0.1548
     54 H24         2.1802   -4.9350   -5.7648 H         1 <0>         0.1455
     55 H25         1.0114   -2.8139   -6.1600 H         1 <0>         0.1454
@<TRIPOS>BOND
     1    1    6 ar
     2    1    2 ar
     3    1   31 1
     4    2    3 ar
     5    2   32 1
     6    3    4 ar
     7    3   33 1
     8    4   26 1
     9    4    5 ar
    10    5    6 ar
    11    5    7 1
    12    6   34 1
    13    7    8 2
    14    7   20 1
    15    8    9 1
    16    8   35 1
    17    9   10 1
    18    9   36 1
    19    9   37 1
    20   10   11 1
    21   10   38 1
    22   10   39 1
    23   11   16 1
    24   11   12 1
    25   12   13 1
    26   12   40 1
    27   12   41 1
    28   13   14 1
    29   13   42 1
    30   13   43 1
    31   14   15 1
    32   14   17 1
    33   15   16 1
    34   15   44 1
    35   15   45 1
    36   16   46 1
    37   16   47 1
    38   17   18 1
    39   17   48 1
    40   17   49 1
    41   18   19 1
    42   18   50 1
    43   18   51 1
    44   19   52 1
    45   20   25 ar
    46   20   21 ar
    47   21   22 ar
    48   21   53 1
    49   22   23 ar
    50   22   27 1
    51   23   24 ar
    52   23   54 1
    53   24   25 ar
    54   24   55 1
    55   25   26 1
    56   27   28 1
    57   27   29 1
    58   27   30 1
@<TRIPOS>MOLECULE
ZINC03812958
   42    45     0     0     0
SMALL
USER_CHARGES

@<TRIPOS>ATOM
      1 C1         -0.1101    1.2005    0.1530 C.ar      1 <0>        -0.1159
      2 C2          0.5295    0.8650    1.3327 C.ar      1 <0>        -0.1173
      3 C3          1.7505    0.2224    1.3000 C.ar      1 <0>        -0.1087
      4 C4          2.3389   -0.0883    0.0758 C.ar      1 <0>        -0.0513
      5 C5          1.6901    0.2521   -1.1095 C.ar      1 <0>        -0.1089
      6 C6          0.4694    0.8945   -1.0651 C.ar      1 <0>        -0.1177
      7 C7          3.6518   -0.7786    0.0344 C.ar      1 <0>        -0.0330
      8 C8          4.2980   -1.1237    1.2196 C.ar      1 <0>        -0.1079
      9 C9          5.5187   -1.7661    1.1753 C.ar      1 <0>        -0.0960
     10 C10         6.1009   -2.0669   -0.0429 C.ar      1 <0>        -0.1086
     11 C11         5.4641   -1.7263   -1.2225 C.ar      1 <0>        -0.0905
     12 C12         4.2401   -1.0892   -1.1899 C.ar      1 <0>        -0.1096
     13 C13         7.4343   -2.7680   -0.0849 C.3       1 <0>         0.2247
     14 H1          8.2296   -2.0301   -0.1898 H         1 <0>         0.1171
     15 C14         7.4680   -3.7133   -1.2581 C.ar      1 <0>        -0.1068
     16 C15         6.4631   -4.6484   -1.4214 C.ar      1 <0>        -0.0943
     17 C16         6.4941   -5.5154   -2.4976 C.ar      1 <0>        -0.1170
     18 C17         7.5297   -5.4471   -3.4107 C.ar      1 <0>        -0.1070
     19 C18         8.5341   -4.5113   -3.2479 C.ar      1 <0>        -0.1183
     20 C19         8.5009   -3.6415   -2.1741 C.ar      1 <0>        -0.0998
     21 N1          7.6286   -3.5225    1.1558 N.pl3     1 <0>        -0.4503
     22 C20         8.6377   -3.3465    2.0638 C.2       1 <0>        -0.0563
     23 C21         8.4364   -4.2428    3.0486 C.2       1 <0>        -0.0275
     24 N2          7.3344   -4.9468    2.7500 N.2       1 <0>        -0.4923
     25 C22         6.8424   -4.5174    1.6202 C.2       1 <0>         0.1908
     26 H2         -1.0676    1.6992    0.1831 H         1 <0>         0.1242
     27 H3          0.0727    1.1065    2.2810 H         1 <0>         0.1256
     28 H4          2.2492   -0.0388    2.2217 H         1 <0>         0.1254
     29 H5          2.1419    0.0139   -2.0611 H         1 <0>         0.1254
     30 H6         -0.0345    1.1585   -1.9832 H         1 <0>         0.1254
     31 H7          3.8446   -0.8886    2.1712 H         1 <0>         0.1284
     32 H8          6.0205   -2.0340    2.0933 H         1 <0>         0.1251
     33 H9          5.9233   -1.9633   -2.1709 H         1 <0>         0.1282
     34 H10         3.7416   -0.8277   -2.1116 H         1 <0>         0.1293
     35 H11         5.6541   -4.7018   -0.7080 H         1 <0>         0.1212
     36 H12         5.7094   -6.2465   -2.6248 H         1 <0>         0.1269
     37 H13         7.5543   -6.1249   -4.2511 H         1 <0>         0.1259
     38 H14         9.3433   -4.4581   -3.9611 H         1 <0>         0.1269
     39 H15         9.2836   -2.9079   -2.0489 H         1 <0>         0.1247
     40 H16         9.4411   -2.6274    2.0021 H         1 <0>         0.1738
     41 H17         9.0540   -4.3720    3.9251 H         1 <0>         0.1697
     42 H18         5.9549   -4.8967    1.1355 H         1 <0>         0.1963
@<TRIPOS>BOND
     1    1    6 ar
     2    1    2 ar
     3    1   26 1
     4    2    3 ar
     5    2   27 1
     6    3    4 ar
     7    3   28 1
     8    4    5 ar
     9    4    7 1
    10    5    6 ar
    11    5   29 1
    12    6   30 1
    13    7   12 ar
    14    7    8 ar
    15    8    9 ar
    16    8   31 1
    17    9   10 ar
    18    9   32 1
    19   10   11 ar
    20   10   13 1
    21   11   12 ar
    22   11   33 1
    23   12   34 1
    24   13   14 1
    25   13   15 1
    26   13   21 1
    27   15   20 ar
    28   15   16 ar
    29   16   17 ar
    30   16   35 1
    31   17   18 ar
    32   17   36 1
    33   18   19 ar
    34   18   37 1
    35   19   20 ar
    36   19   38 1
    37   20   39 1
    38   21   25 1
    39   21   22 1
    40   22   23 2
    41   22   40 1
    42   23   24 1
    43   23   41 1
    44   24   25 2
    45   25   42 1
@<TRIPOS>MOLECULE
ZINC03807804
   43    46     0     0     0
SMALL
USER_CHARGES

@<TRIPOS>ATOM
      1 C1          0.5987    1.7832    1.4981 C.ar      1 <0>        -0.0892
      2 C2          0.3739    1.0091    0.3751 C.ar      1 <0>        -0.1131
      3 C3          1.3811    0.2033   -0.1220 C.ar      1 <0>        -0.1073
      4 C4          2.6134    0.1720    0.5037 C.ar      1 <0>        -0.1169
      5 C5          2.8385    0.9468    1.6262 C.ar      1 <0>        -0.0809
      6 C6          1.8308    1.7515    2.1240 C.ar      1 <0>        -0.1100
      7 C7          3.7112   -0.7071   -0.0376 C.3       1 <0>         0.3108
      8 C8          4.1045   -0.2308   -1.4122 C.ar      1 <0>        -0.1114
      9 C9          4.1390   -1.1216   -2.4687 C.ar      1 <0>        -0.1224
     10 C10         4.4997   -0.6846   -3.7296 C.ar      1 <0>        -0.1050
     11 C11         4.8255    0.6431   -3.9340 C.ar      1 <0>        -0.0966
     12 C12         4.7901    1.5341   -2.8777 C.ar      1 <0>        -0.1040
     13 C13         4.4252    1.0980   -1.6177 C.ar      1 <0>        -0.0870
     14 C14         4.9061   -0.6400    0.8783 C.ar      1 <0>        -0.1243
     15 C15         6.0946   -0.0984    0.4255 C.ar      1 <0>        -0.0806
     16 C16         7.1906   -0.0368    1.2654 C.ar      1 <0>        -0.1064
     17 C17         7.0990   -0.5167    2.5588 C.ar      1 <0>        -0.0779
     18 C18         5.9114   -1.0584    3.0126 C.ar      1 <0>        -0.1060
     19 C19         4.8121   -1.1151    2.1740 C.ar      1 <0>        -0.0235
     20 Cl1         3.3179   -1.7894    2.7455 Cl        1 <0>        -0.0546
     21 N1          3.2345   -2.0901   -0.1178 N.pl3     1 <0>        -0.3928
     22 C20         1.9543   -2.5219    0.1018 C.2       1 <0>         0.0325
     23 C21         1.9573   -3.8567   -0.0767 C.2       1 <0>         0.0033
     24 N2          3.2053   -4.2297   -0.3965 N.pl3     1 <0>        -0.4715
     25 C22         3.9747   -3.1761   -0.4280 C.cat     1 <0>         0.2859
     26 H1         -0.1868    2.4161    1.8838 H         1 <0>         0.1340
     27 H2         -0.5889    1.0335   -0.1137 H         1 <0>         0.1343
     28 H3          1.2053   -0.4020   -0.9989 H         1 <0>         0.1246
     29 H4          3.8010    0.9218    2.1154 H         1 <0>         0.1290
     30 H5          2.0066    2.3566    3.0012 H         1 <0>         0.1338
     31 H6          3.8845   -2.1589   -2.3090 H         1 <0>         0.1110
     32 H7          4.5274   -1.3807   -4.5549 H         1 <0>         0.1325
     33 H8          5.1080    0.9843   -4.9190 H         1 <0>         0.1349
     34 H9          5.0450    2.5713   -3.0374 H         1 <0>         0.1371
     35 H10         4.3939    1.7949   -0.7931 H         1 <0>         0.1317
     36 H11         6.1669    0.2763   -0.5848 H         1 <0>         0.1476
     37 H12         8.1191    0.3861    0.9110 H         1 <0>         0.1431
     38 H13         7.9558   -0.4686    3.2145 H         1 <0>         0.1451
     39 H14         5.8400   -1.4335    4.0228 H         1 <0>         0.1446
     40 H15         1.1050   -1.9099    0.3675 H         1 <0>         0.2211
     41 H16         1.1044   -4.5120    0.0207 H         1 <0>         0.2258
     42 H17         5.0293   -3.1735   -0.6609 H         1 <0>         0.2540
     43 H18         3.4903   -5.1387   -0.5793 H         1 <0>         0.4647
@<TRIPOS>BOND
     1    1    6 ar
     2    1    2 ar
     3    1   26 1
     4    2    3 ar
     5    2   27 1
     6    3    4 ar
     7    3   28 1
     8    4    5 ar
     9    4    7 1
    10    5    6 ar
    11    5   29 1
    12    6   30 1
    13    7    8 1
    14    7   14 1
    15    7   21 1
    16    8   13 ar
    17    8    9 ar
    18    9   10 ar
    19    9   31 1
    20   10   11 ar
    21   10   32 1
    22   11   12 ar
    23   11   33 1
    24   12   13 ar
    25   12   34 1
    26   13   35 1
    27   14   19 ar
    28   14   15 ar
    29   15   16 ar
    30   15   36 1
    31   16   17 ar
    32   16   37 1
    33   17   18 ar
    34   17   38 1
    35   18   19 ar
    36   18   39 1
    37   19   20 1
    38   21   25 1
    39   21   22 1
    40   22   23 2
    41   22   40 1
    42   23   24 1
    43   23   41 1
    44   24   25 2
    45   24   43 1
    46   25   42 1
@<TRIPOS>MOLECULE
ZINC03806262
   36    38     0     0     0
SMALL
USER_CHARGES

@<TRIPOS>ATOM
      1 C1         -0.0163    1.3522    0.0095 C.cat     1 <0>         0.3211
      2 N1          1.2103    1.7869    0.0001 N.pl3     1 <0>        -0.4546
      3 C2          2.0633    0.7434   -0.0126 C.2       1 <0>        -0.0381
      4 C3          1.3317   -0.3961   -0.0166 C.2       1 <0>         0.3236
      5 N2          0.0021   -0.0041    0.0020 N.pl3     1 <0>        -0.4196
      6 C4         -1.1651   -0.8893    0.0125 C.3       1 <0>         0.3016
      7 H1         -0.9730   -1.7765   -0.5908 H         1 <0>         0.1414
      8 C5         -1.5224   -1.2909    1.4608 C.3       1 <0>        -0.1940
      9 C6         -3.0672   -1.3227    1.4714 C.3       1 <0>         0.0828
     10 H2         -3.4593   -0.5949    2.1818 H         1 <0>         0.0891
     11 C7         -3.4604   -0.9365    0.0282 C.3       1 <0>         0.0900
     12 H3         -3.6223   -1.8310   -0.5732 H         1 <0>         0.1080
     13 O1         -2.3304   -0.1908   -0.4774 O.3       1 <0>        -0.3585
     14 C8         -4.7180   -0.0651    0.0340 C.3       1 <0>         0.0840
     15 O2         -5.1311    0.1840   -1.3112 O.3       1 <0>        -0.5665
     16 O3         -3.5389   -2.6339    1.7879 O.3       1 <0>        -0.5478
     17 N3          1.7149   -1.6930   -0.0407 N.2       1 <0>        -0.5854
     18 C9          2.8881   -2.1890   -0.0979 C.2       1 <0>         0.4820
     19 N4          4.0487   -1.5019   -0.1101 N.pl3     1 <0>        -0.7398
     20 C10         4.2371   -0.2273   -0.7738 C.3       1 <0>         0.0771
     21 C11         3.5586    0.8968   -0.0151 C.3       1 <0>         0.1597
     22 H4          3.9174    0.8982    1.0141 H         1 <0>         0.0964
     23 O4          3.8981    2.1429   -0.6266 O.3       1 <0>        -0.5609
     24 H5         -0.9025    1.9694    0.0253 H         1 <0>         0.2637
     25 H6         -1.1186   -2.2760    1.6947 H         1 <0>         0.1166
     26 H7         -1.1509   -0.5475    2.1660 H         1 <0>         0.0937
     27 H8         -5.5151   -0.5810    0.5692 H         1 <0>         0.0782
     28 H9         -4.5017    0.8817    0.5288 H         1 <0>         0.0589
     29 H10        -5.9246    0.7318   -1.3839 H         1 <0>         0.3922
     30 H11        -3.2688   -2.9488    2.6614 H         1 <0>         0.3949
     31 H12         2.9595   -3.2658   -0.1405 H         1 <0>         0.2040
     32 H13         4.8074   -1.8862    0.3565 H         1 <0>         0.4204
     33 H14         5.3042   -0.0164   -0.8447 H         1 <0>         0.1208
     34 H15         3.8183   -0.2831   -1.7786 H         1 <0>         0.0902
     35 H16         4.8487    2.3156   -0.6661 H         1 <0>         0.4096
     36 H17         1.4713    2.7211    0.0020 H         1 <0>         0.4651
@<TRIPOS>BOND
     1    1    5 1
     2    1    2 2
     3    1   24 1
     4    2    3 1
     5    2   36 1
     6    3   21 1
     7    3    4 2
     8    4    5 1
     9    4   17 1
    10    5    6 1
    11    6    7 1
    12    6   13 1
    13    6    8 1
    14    8    9 1
    15    8   25 1
    16    8   26 1
    17    9   10 1
    18    9   11 1
    19    9   16 1
    20   11   12 1
    21   11   13 1
    22   11   14 1
    23   14   15 1
    24   14   27 1
    25   14   28 1
    26   15   29 1
    27   16   30 1
    28   17   18 2
    29   18   19 1
    30   18   31 1
    31   19   20 1
    32   19   32 1
    33   20   21 1
    34   20   33 1
    35   20   34 1
    36   21   22 1
    37   21   23 1
    38   23   35 1
@<TRIPOS>MOLECULE
ZINC28643021
   55    58     0     0     0
SMALL
USER_CHARGES

@<TRIPOS>ATOM
      1 C1         -0.6025    1.1442    1.5910 C.ar      1 <0>        -0.1141
      2 C2          0.4634    2.0271    1.6425 C.ar      1 <0>        -0.0991
      3 C3          1.7234    1.6177    1.2613 C.ar      1 <0>        -0.0916
      4 C4          1.9364    0.3124    0.8216 C.ar      1 <0>        -0.1086
      5 C5          0.8633   -0.5788    0.7701 C.ar      1 <0>        -0.0362
      6 C6         -0.4091   -0.1498    1.1590 C.ar      1 <0>        -0.1026
      7 C7          1.0400   -1.9706    0.3154 C.2       1 <0>        -0.0723
      8 C8         -0.0247   -2.6396   -0.1521 C.2       1 <0>        -0.1081
      9 C9         -1.2518   -1.8865   -0.5973 C.3       1 <0>        -0.1033
     10 C10        -1.6489   -2.3436   -2.0024 C.3       1 <0>         0.0595
     11 N1         -2.8451   -1.6095   -2.4364 N.3       1 <0>        -0.5386
     12 C11        -2.5523   -0.1795   -2.6070 C.3       1 <0>         0.0554
     13 C12        -3.8387    0.5607   -2.9812 C.3       1 <0>         0.0561
     14 N2         -4.3887   -0.0126   -4.2175 N.3       1 <0>        -0.5307
     15 C13        -4.6814   -1.4425   -4.0468 C.3       1 <0>         0.0586
     16 C14        -3.3951   -2.1827   -3.6727 C.3       1 <0>         0.0577
     17 C15        -5.5849    0.7215   -4.6514 C.3       1 <0>         0.0537
     18 C16        -5.1668    2.0550   -5.2743 C.3       1 <0>         0.0822
     19 O1         -4.3813    1.8096   -6.4425 O.3       1 <0>        -0.5595
     20 C17         2.3474   -2.6519    0.3566 C.ar      1 <0>        -0.0339
     21 C18         2.3824   -4.0492    0.3795 C.ar      1 <0>        -0.0515
     22 C19         3.5899   -4.7119    0.4195 C.ar      1 <0>        -0.1771
     23 C20         4.7758   -3.9966    0.4377 C.ar      1 <0>        -0.0568
     24 C21         4.7559   -2.6183    0.4155 C.ar      1 <0>        -0.0902
     25 C22         3.5434   -1.9324    0.3735 C.ar      1 <0>        -0.0778
     26 S1          3.5559   -0.1747    0.3418 S.3       1 <0>         0.0558
     27 C23         3.6202   -6.2184    0.4439 C.3       1 <0>         0.5104
     28 F1          3.6619   -6.7053   -0.8669 F         1 <0>        -0.1738
     29 F2          4.7552   -6.6508    1.1383 F         1 <0>        -0.1741
     30 F3          2.4718   -6.6976    1.0832 F         1 <0>        -0.1757
     31 H1         -1.5866    1.4695    1.8943 H         1 <0>         0.1315
     32 H2          0.3068    3.0403    1.9823 H         1 <0>         0.1327
     33 H3          2.5496    2.3120    1.3033 H         1 <0>         0.1327
     34 H4         -1.2431   -0.8349    1.1208 H         1 <0>         0.1437
     35 H5         -0.0025   -3.7178   -0.2095 H         1 <0>         0.1267
     36 H6         -2.0707   -2.0849    0.0942 H         1 <0>         0.0898
     37 H7         -1.0376   -0.8178   -0.6098 H         1 <0>         0.0894
     38 H8         -0.8301   -2.1452   -2.6940 H         1 <0>         0.0382
     39 H9         -1.8631   -3.4122   -1.9899 H         1 <0>         0.0779
     40 H10        -2.1582    0.2248   -1.6747 H         1 <0>         0.0801
     41 H11        -1.8153   -0.0513   -3.3998 H         1 <0>         0.0434
     42 H12        -4.5661    0.4552   -2.1763 H         1 <0>         0.0418
     43 H13        -3.6184    1.6168   -3.1366 H         1 <0>         0.0775
     44 H14        -5.4185   -1.5708   -3.2541 H         1 <0>         0.0419
     45 H15        -5.0756   -1.8468   -4.9792 H         1 <0>         0.0805
     46 H16        -2.6676   -2.0772   -4.4775 H         1 <0>         0.0445
     47 H17        -3.6154   -3.2389   -3.5173 H         1 <0>         0.0806
     48 H18        -6.1265    0.1298   -5.3893 H         1 <0>         0.0813
     49 H19        -6.2285    0.9080   -3.7918 H         1 <0>         0.0512
     50 H20        -6.0561    2.6232   -5.5472 H         1 <0>         0.0478
     51 H21        -4.5790    2.6240   -4.5541 H         1 <0>         0.0433
     52 H22        -4.0808    2.6123   -6.8902 H         1 <0>         0.3748
     53 H23         1.4602   -4.6111    0.3662 H         1 <0>         0.1430
     54 H24         5.7197   -4.5206    0.4697 H         1 <0>         0.1460
     55 H25         5.6847   -2.0673    0.4303 H         1 <0>         0.1460
@<TRIPOS>BOND
     1    1    6 ar
     2    1    2 ar
     3    1   31 1
     4    2    3 ar
     5    2   32 1
     6    3    4 ar
     7    3   33 1
     8    4   26 1
     9    4    5 ar
    10    5    6 ar
    11    5    7 1
    12    6   34 1
    13    7    8 2
    14    7   20 1
    15    8    9 1
    16    8   35 1
    17    9   10 1
    18    9   36 1
    19    9   37 1
    20   10   11 1
    21   10   38 1
    22   10   39 1
    23   11   16 1
    24   11   12 1
    25   12   13 1
    26   12   40 1
    27   12   41 1
    28   13   14 1
    29   13   42 1
    30   13   43 1
    31   14   15 1
    32   14   17 1
    33   15   16 1
    34   15   44 1
    35   15   45 1
    36   16   46 1
    37   16   47 1
    38   17   18 1
    39   17   48 1
    40   17   49 1
    41   18   19 1
    42   18   50 1
    43   18   51 1
    44   19   52 1
    45   20   25 ar
    46   20   21 ar
    47   21   22 ar
    48   21   53 1
    49   22   23 ar
    50   22   27 1
    51   23   24 ar
    52   23   54 1
    53   24   25 ar
    54   24   55 1
    55   25   26 1
    56   27   28 1
    57   27   29 1
    58   27   30 1
@<TRIPOS>MOLECULE
ZINC29319828
   52    54     0     0     0
SMALL
USER_CHARGES

@<TRIPOS>ATOM
      1 C1          0.4744    2.4124   -0.4417 C.3       1 <0>        -0.1511
      2 C2          0.1486    0.9211   -0.5461 C.3       1 <0>        -0.1239
      3 C3          0.9581    0.3008   -1.6866 C.3       1 <0>        -0.1138
      4 C4          0.6323   -1.1904   -1.7910 C.3       1 <0>        -0.0353
      5 C5          1.4296   -1.8014   -2.9144 C.2       1 <0>         0.2051
      6 N1          1.0395   -1.8818   -4.1611 N.2       1 <0>        -0.4842
      7 C6          1.9816   -2.4768   -4.8916 C.2       1 <0>        -0.0269
      8 C7          3.0297   -2.7890   -4.0461 C.2       1 <0>         0.0257
      9 N2          2.6553   -2.3435   -2.7919 N.pl3     1 <0>        -0.4349
     10 C8          3.4431   -2.4453   -1.5610 C.3       1 <0>         0.1490
     11 C9          3.2317   -3.8021   -0.9401 C.ar      1 <0>        -0.1303
     12 C10         2.1470   -4.0172   -0.1081 C.ar      1 <0>        -0.1193
     13 C11         1.9474   -5.2561    0.4640 C.ar      1 <0>        -0.0913
     14 C12         2.8434   -6.2955    0.2015 C.ar      1 <0>        -0.1228
     15 C13         3.9361   -6.0712   -0.6398 C.ar      1 <0>        -0.0836
     16 C14         4.1201   -4.8285   -1.2091 C.ar      1 <0>        -0.1078
     17 C15         2.6370   -7.6236    0.8101 C.2       1 <0>         0.5204
     18 O1          1.7349   -7.7922    1.6184 O.co2     1 <0>        -0.6920
     19 O2          3.3679   -8.5557    0.5064 O.co2     1 <0>        -0.6844
     20 C16         4.2423   -3.4304   -4.3945 C.2       1 <0>        -0.0600
     21 C17         4.3910   -3.9782   -5.6297 C.2       1 <0>        -0.0970
     22 C18         3.2032   -4.0956   -6.5498 C.3       1 <0>        -0.0190
     23 C19         3.2026   -2.9416   -7.5190 C.2       1 <0>        -0.1090
     24 C20         3.6636   -2.8964   -8.7928 C.2       1 <0>        -0.1550
     25 C21         3.5568   -1.7152   -9.5028 C.2       1 <0>        -0.1467
     26 C22         2.9943   -0.6370   -8.9043 C.2       1 <0>        -0.2280
     27 S1          2.5872   -1.2814   -7.2899 S.3       1 <0>         0.0486
     28 C23         5.6550   -4.4360   -6.0496 C.2       1 <0>         0.4609
     29 O3          6.7052   -4.3321   -5.2361 O.co2     1 <0>        -0.7052
     30 O4          5.8007   -4.9729   -7.2603 O.co2     1 <0>        -0.7023
     31 H1          1.5386    2.5387   -0.2425 H         1 <0>         0.0526
     32 H2          0.2191    2.9066   -1.3791 H         1 <0>         0.0529
     33 H3         -0.1022    2.8543    0.3708 H         1 <0>         0.0508
     34 H4          0.4040    0.4270    0.3913 H         1 <0>         0.0624
     35 H5         -0.9156    0.7948   -0.7452 H         1 <0>         0.0634
     36 H6          0.7027    0.7950   -2.6240 H         1 <0>         0.0700
     37 H7          2.0223    0.4272   -1.4874 H         1 <0>         0.0598
     38 H8          0.8876   -1.6846   -0.8536 H         1 <0>         0.0782
     39 H9         -0.4319   -1.3167   -1.9901 H         1 <0>         0.0920
     40 H10         1.9348   -2.6788   -5.9515 H         1 <0>         0.1881
     41 H11         4.4997   -2.3130   -1.7938 H         1 <0>         0.0979
     42 H12         3.1256   -1.6721   -0.8614 H         1 <0>         0.0971
     43 H13         1.4552   -3.2128    0.0939 H         1 <0>         0.1111
     44 H14         1.1008   -5.4223    1.1137 H         1 <0>         0.1250
     45 H15         4.6327   -6.8701   -0.8472 H         1 <0>         0.1290
     46 H16         4.9618   -4.6548   -1.8631 H         1 <0>         0.1219
     47 H17         5.0495   -3.4846   -3.6790 H         1 <0>         0.1321
     48 H18         3.2626   -5.0336   -7.1019 H         1 <0>         0.1021
     49 H19         2.2853   -4.0772   -5.9623 H         1 <0>         0.0976
     50 H20         4.1079   -3.7701   -9.2462 H         1 <0>         0.1383
     51 H21         3.9166   -1.6523  -10.5192 H         1 <0>         0.1207
     52 H22         2.8311    0.3537   -9.3021 H         1 <0>         0.1712
@<TRIPOS>BOND
     1    1    2 1
     2    1   31 1
     3    1   32 1
     4    1   33 1
     5    2    3 1
     6    2   34 1
     7    2   35 1
     8    3    4 1
     9    3   36 1
    10    3   37 1
    11    4    5 1
    12    4   38 1
    13    4   39 1
    14    5    9 1
    15    5    6 2
    16    6    7 1
    17    7    8 2
    18    7   40 1
    19    8    9 1
    20    8   20 1
    21    9   10 1
    22   10   11 1
    23   10   41 1
    24   10   42 1
    25   11   16 ar
    26   11   12 ar
    27   12   13 ar
    28   12   43 1
    29   13   14 ar
    30   13   44 1
    31   14   15 ar
    32   14   17 1
    33   15   16 ar
    34   15   45 1
    35   16   46 1
    36   17   18 2
    37   17   19 1
    38   20   21 2
    39   20   47 1
    40   21   22 1
    41   21   28 1
    42   22   23 1
    43   22   48 1
    44   22   49 1
    45   23   27 1
    46   23   24 2
    47   24   25 1
    48   24   50 1
    49   25   26 2
    50   25   51 1
    51   26   27 1
    52   26   52 1
    53   28   29 2
    54   28   30 1
@<TRIPOS>MOLECULE
ZINC21303210
   28    30     0     0     0
SMALL
USER_CHARGES

@<TRIPOS>ATOM
      1 C1          0.0087    1.3744   -0.3965 C.ar      1 <0>        -0.0122
      2 C2          1.1793    2.0650   -0.3816 C.ar      1 <0>        -0.1499
      3 C3          2.3797    1.4379   -0.0270 C.ar      1 <0>         0.1546
      4 C4          2.4007    0.1033    0.3157 C.ar      1 <0>        -0.0615
      5 C5          1.2046   -0.6328    0.3082 C.ar      1 <0>         0.1098
      6 C6         -0.0071    0.0111   -0.0526 C.ar      1 <0>         0.0812
      7 N1         -1.1472   -0.6877   -0.0609 N.ar      1 <0>        -0.4121
      8 C7         -1.1342   -1.9604    0.2642 C.ar      1 <0>         0.1002
      9 C8          0.0579   -2.5940    0.6197 C.ar      1 <0>         0.1109
     10 N2          1.1914   -1.9300    0.6358 N.ar      1 <0>        -0.4149
     11 Br1         4.0292   -0.7317    0.7922 Br        1 <0>         0.0163
     12 N3          3.5690    2.1729   -0.0208 N.pl3     1 <0>        -0.6334
     13 C9          3.5853    3.4453    0.4869 C.cat     1 <0>         0.7244
     14 N4          2.5396    3.9881    1.0887 N.pl3     1 <0>        -0.6674
     15 C10         2.8809    5.3540    1.5158 C.3       1 <0>         0.0745
     16 C11         4.3413    5.5214    1.0493 C.3       1 <0>         0.0783
     17 N5          4.6499    4.2279    0.4197 N.pl3     1 <0>        -0.6629
     18 H1         -0.9097    1.8737   -0.6681 H         1 <0>         0.1660
     19 H2          1.1836    3.1117   -0.6474 H         1 <0>         0.1522
     20 H3         -2.0562   -2.5228    0.2567 H         1 <0>         0.1921
     21 H4          0.0483   -3.6410    0.8842 H         1 <0>         0.1927
     22 H5          4.3826    1.7820   -0.3759 H         1 <0>         0.4455
     23 H6          2.2353    6.0823    1.0251 H         1 <0>         0.1262
     24 H7          2.8111    5.4461    2.5996 H         1 <0>         0.1251
     25 H8          4.4228    6.3331    0.3264 H         1 <0>         0.1266
     26 H9          4.9986    5.6968    1.9009 H         1 <0>         0.1251
     27 H10         5.4990    3.9878    0.0169 H         1 <0>         0.4575
     28 H11         1.6831    3.5541    1.2263 H         1 <0>         0.4551
@<TRIPOS>BOND
     1    1    6 ar
     2    1    2 ar
     3    1   18 1
     4    2    3 ar
     5    2   19 1
     6    3    4 ar
     7    3   12 1
     8    4    5 ar
     9    4   11 1
    10    5   10 ar
    11    5    6 ar
    12    6    7 ar
    13    7    8 ar
    14    8    9 ar
    15    8   20 1
    16    9   10 ar
    17    9   21 1
    18   12   13 1
    19   12   22 1
    20   13   17 1
    21   13   14 2
    22   14   15 1
    23   14   28 1
    24   15   16 1
    25   15   23 1
    26   15   24 1
    27   16   17 1
    28   16   25 1
    29   16   26 1
    30   17   27 1
@<TRIPOS>MOLECULE
ZINC13129998
   35    37     0     0     0
SMALL
USER_CHARGES

@<TRIPOS>ATOM
      1 C1          6.4930   -3.5147   -0.1767 C.3       1 <0>        -0.0459
      2 C2          5.0296   -3.8733   -0.1487 C.2       1 <0>        -0.2525
      3 C3          4.4599   -5.0832   -0.1361 C.2       1 <0>         0.0729
      4 N1          3.1005   -5.1332   -0.1098 N.pl3     1 <0>        -0.6314
      5 C4          2.4017   -3.9627   -0.0979 C.2       1 <0>         0.3402
      6 S1          3.6106   -2.7943   -0.1159 S.3       1 <0>         0.1274
      7 N2          1.0832   -3.7875   -0.0727 N.2       1 <0>        -0.5478
      8 C5          0.2675   -4.8419   -0.1604 C.2       1 <0>         0.4720
      9 O1          0.7798   -6.0951   -0.1710 O.3       1 <0>        -0.6673
     10 C6         -1.1105   -4.6518   -0.2410 C.2       1 <0>        -0.2243
     11 C7         -1.9468   -5.7591   -0.2345 C.2       1 <0>         0.3766
     12 C8         -3.4168   -5.6743   -0.3059 C.ar      1 <0>        -0.0262
     13 C9         -4.2000   -6.7783    0.0412 C.ar      1 <0>        -0.1001
     14 C10        -5.5747   -6.6945   -0.0254 C.ar      1 <0>        -0.0839
     15 C11        -6.1867   -5.5225   -0.4340 C.ar      1 <0>        -0.1385
     16 C12        -5.4193   -4.4228   -0.7811 C.ar      1 <0>        -0.0343
     17 C13        -4.0479   -4.4979   -0.7183 C.ar      1 <0>        -0.6365
     18 S2         -3.0457   -3.1118   -1.1599 S.o2      1 <0>         2.6889
     19 O2         -3.6696   -1.9578   -0.6137 O.2       1 <0>        -0.9750
     20 O3         -2.7445   -3.2412   -2.5425 O.2       1 <0>        -0.9627
     21 N3         -1.6207   -3.3345   -0.3214 N.pl3     1 <0>        -0.8980
     22 C14        -0.9215   -2.2101    0.3056 C.3       1 <0>         0.1079
     23 O4         -1.4358   -6.8672   -0.1661 O.2       1 <0>        -0.4957
     24 H1          6.6014   -2.4301   -0.1750 H         1 <0>         0.0706
     25 H2          6.9859   -3.9305    0.7022 H         1 <0>         0.0710
     26 H3          6.9503   -3.9241   -1.0774 H         1 <0>         0.0715
     27 H4          5.0550   -5.9844   -0.1468 H         1 <0>         0.1712
     28 H5         -3.7292   -7.6962    0.3610 H         1 <0>         0.1373
     29 H6         -6.1778   -7.5493    0.2428 H         1 <0>         0.1271
     30 H7         -7.2640   -5.4653   -0.4826 H         1 <0>         0.1287
     31 H8         -5.8972   -3.5082   -1.0997 H         1 <0>         0.1322
     32 H9         -0.0756   -2.5843    0.8822 H         1 <0>         0.1074
     33 H10        -0.5624   -1.5295   -0.4663 H         1 <0>         0.0421
     34 H11        -1.6063   -1.6800    0.9675 H         1 <0>         0.0429
     35 H12         2.6374   -5.9854   -0.1001 H         1 <0>         0.4319
@<TRIPOS>BOND
     1    1    2 1
     2    1   24 1
     3    1   25 1
     4    1   26 1
     5    2    6 1
     6    2    3 2
     7    3    4 1
     8    3   27 1
     9    4    5 1
    10    4   35 1
    11    5    6 1
    12    5    7 2
    13    7    8 1
    14    8    9 1
    15    8   10 2
    16   10   21 1
    17   10   11 1
    18   11   12 1
    19   11   23 2
    20   12   17 ar
    21   12   13 ar
    22   13   14 ar
    23   13   28 1
    24   14   15 ar
    25   14   29 1
    26   15   16 ar
    27   15   30 1
    28   16   17 ar
    29   16   31 1
    30   17   18 1
    31   18   19 2
    32   18   20 2
    33   18   21 1
    34   21   22 1
    35   22   32 1
    36   22   33 1
    37   22   34 1
@<TRIPOS>MOLECULE
ZINC18456332
   44    46     0     0     0
SMALL
USER_CHARGES

@<TRIPOS>ATOM
      1 C1         -0.0158    1.3119    0.0093 C.ar      1 <0>         0.3494
      2 N1          1.0888    2.0360    0.0026 N.ar      1 <0>        -0.5975
      3 C2          2.2875    1.4625   -0.0119 C.ar      1 <0>         0.5031
      4 C3          2.3582    0.0588   -0.0202 C.ar      1 <0>        -0.1040
      5 C4          1.1547   -0.6659   -0.0126 C.ar      1 <0>         0.3055
      6 N2          0.0021   -0.0041    0.0020 N.ar      1 <0>        -0.5412
      7 N3          1.5110   -1.9908   -0.0227 N.pl3     1 <0>        -0.4640
      8 C5          2.8729   -2.0476   -0.0358 C.2       1 <0>         0.2824
      9 N4          3.3680   -0.8441   -0.0343 N.2       1 <0>        -0.4713
     10 C6          0.5956   -3.1347   -0.0195 C.3       1 <0>         0.3056
     11 H1         -0.2832   -2.9148    0.5866 H         1 <0>         0.1211
     12 C7          0.1775   -3.4928   -1.4629 C.3       1 <0>         0.0379
     13 H2          0.9267   -3.1463   -2.1747 H         1 <0>         0.0811
     14 C8          0.1056   -5.0362   -1.4608 C.3       1 <0>         0.0474
     15 H3          0.8193   -5.4528   -2.1716 H         1 <0>         0.0934
     16 C9          0.4888   -5.4280   -0.0165 C.3       1 <0>         0.0865
     17 H4         -0.4066   -5.5617    0.5906 H         1 <0>         0.1044
     18 O1          1.2661   -4.3138    0.4763 O.3       1 <0>        -0.3347
     19 C10         1.3272   -6.7078   -0.0164 C.3       1 <0>         0.1425
     20 O2          1.5723   -7.1166    1.3308 O.3       1 <0>        -0.7624
     21 P1          2.4256   -8.4288    1.7075 P.3       1 <0>         2.2881
     22 O3          1.8172   -9.6597    0.9990 O.2       1 <0>        -1.0989
     23 O4          3.8887   -8.2411    1.2481 O.3       1 <0>        -1.1087
     24 O5          2.3882   -8.6541    3.3012 O.3       1 <0>        -1.0977
     25 P2          2.7541   -9.8909    4.2648 P.3       1 <0>         2.3538
     26 O6          2.2714  -11.2082    3.6178 O.2       1 <0>        -1.1051
     27 O7          4.2843   -9.9485    4.4702 O.3       1 <0>        -1.1152
     28 O8          2.0285   -9.6949    5.6886 O.3       1 <0>        -1.0986
     29 P3          1.7333  -10.6680    6.9368 P.3       1 <0>         2.2762
     30 O9          3.0023  -11.4867    7.2630 O.2       1 <0>        -1.1169
     31 O10         1.3194   -9.7862    8.2187 O.3       1 <0>        -0.9091
     32 O11         0.5782  -11.6293    6.5784 O.3       1 <0>        -1.1166
     33 O12        -1.2191   -5.4762   -1.7672 O.3       1 <0>        -0.5307
     34 O13        -1.0998   -2.9297   -1.7685 O.3       1 <0>        -0.5304
     35 N5          3.4393    2.2295   -0.0193 N.pl3     1 <0>        -0.8229
     36 H5         -0.9693    1.8187    0.0257 H         1 <0>         0.2006
     37 H6          3.4551   -2.9572   -0.0459 H         1 <0>         0.2321
     38 H7          0.7880   -7.4954   -0.5427 H         1 <0>         0.0798
     39 H8          2.2767   -6.5201   -0.5176 H         1 <0>         0.0610
     40 H9         -1.5313   -5.2049   -2.6412 H         1 <0>         0.3731
     41 H10        -1.4113   -3.1237   -2.6632 H         1 <0>         0.3770
     42 H11         3.3774    3.1975   -0.0138 H         1 <0>         0.4057
     43 H12         4.3085    1.7992   -0.0299 H         1 <0>         0.4184
     44 H13         1.1268  -10.3081    9.0096 H         1 <0>         0.3997
@<TRIPOS>BOND
     1    1    6 ar
     2    1    2 ar
     3    1   36 1
     4    2    3 ar
     5    3    4 ar
     6    3   35 1
     7    4    9 1
     8    4    5 ar
     9    5    6 ar
    10    5    7 1
    11    7    8 1
    12    7   10 1
    13    8    9 2
    14    8   37 1
    15   10   11 1
    16   10   18 1
    17   10   12 1
    18   12   13 1
    19   12   14 1
    20   12   34 1
    21   14   15 1
    22   14   16 1
    23   14   33 1
    24   16   17 1
    25   16   18 1
    26   16   19 1
    27   19   20 1
    28   19   38 1
    29   19   39 1
    30   20   21 1
    31   21   22 2
    32   21   23 1
    33   21   24 1
    34   24   25 1
    35   25   26 2
    36   25   27 1
    37   25   28 1
    38   28   29 1
    39   29   30 2
    40   29   31 1
    41   29   32 1
    42   31   44 1
    43   33   40 1
    44   34   41 1
    45   35   42 1
    46   35   43 1
@<TRIPOS>MOLECULE
ZINC21983537
   56    59     0     0     0
SMALL
USER_CHARGES

@<TRIPOS>ATOM
      1 C1         -0.0983    1.4801   -0.4454 C.ar      1 <0>        -0.1198
      2 C2          0.0963    0.4265    0.4298 C.ar      1 <0>        -0.1214
      3 C3          1.3025   -0.2430    0.4508 C.ar      1 <0>        -0.1151
      4 C4          2.3271    0.1444   -0.4135 C.ar      1 <0>        -0.0551
      5 C5          2.1243    1.2076   -1.2941 C.ar      1 <0>        -0.1082
      6 C6          0.9135    1.8691   -1.3049 C.ar      1 <0>        -0.1192
      7 C7          3.6221   -0.5681   -0.3960 C.2       1 <0>        -0.1169
      8 C8          3.6558   -1.8768   -0.1876 C.2       1 <0>        -0.1318
      9 C9          2.3731   -2.6668   -0.1485 C.3       1 <0>         0.0680
     10 N1          2.4632   -3.7937   -1.0866 N.3       1 <0>        -0.5346
     11 C10         3.4796   -4.7616   -0.6510 C.3       1 <0>         0.0562
     12 C11         3.5983   -5.8763   -1.6930 C.3       1 <0>         0.0574
     13 N2          2.2919   -6.5282   -1.8602 N.3       1 <0>        -0.5276
     14 C12         1.2755   -5.5603   -2.2958 C.3       1 <0>         0.0575
     15 C13         1.1568   -4.4455   -1.2538 C.3       1 <0>         0.0606
     16 C14         2.3821   -7.6550   -2.7983 C.3       1 <0>         0.1677
     17 C15         3.4484   -8.6125   -2.3324 C.ar      1 <0>        -0.0762
     18 C16         3.5045   -8.9915   -1.0042 C.ar      1 <0>        -0.0893
     19 C17         4.4827   -9.8698   -0.5768 C.ar      1 <0>        -0.1239
     20 C18         5.4045  -10.3695   -1.4776 C.ar      1 <0>        -0.1183
     21 C19         5.3478   -9.9912   -2.8060 C.ar      1 <0>        -0.1204
     22 C20         4.3670   -9.1162   -3.2343 C.ar      1 <0>        -0.1134
     23 C21         1.0560   -8.3688   -2.8550 C.ar      1 <0>        -0.0760
     24 C22         0.2954   -8.5059   -1.7089 C.ar      1 <0>        -0.0907
     25 C23        -0.9210   -9.1606   -1.7609 C.ar      1 <0>        -0.1243
     26 C24        -1.3769   -9.6778   -2.9591 C.ar      1 <0>        -0.1190
     27 C25        -0.6167   -9.5399   -4.1053 C.ar      1 <0>        -0.1205
     28 C26         0.5977   -8.8814   -4.0542 C.ar      1 <0>        -0.1130
     29 H1         -1.0458    1.9982   -0.4608 H         1 <0>         0.1216
     30 H2         -0.6976    0.1276    1.0982 H         1 <0>         0.1227
     31 H3          1.4535   -1.0649    1.1350 H         1 <0>         0.1250
     32 H4          2.9135    1.5125   -1.9653 H         1 <0>         0.1233
     33 H5          0.7553    2.6924   -1.9858 H         1 <0>         0.1229
     34 H6          4.5408   -0.0224   -0.5530 H         1 <0>         0.1230
     35 H7          4.6025   -2.3768   -0.0458 H         1 <0>         0.1168
     36 H8          2.2106   -3.0461    0.8604 H         1 <0>         0.0429
     37 H9          1.5409   -2.0229   -0.4330 H         1 <0>         0.0973
     38 H10         4.4405   -4.2576   -0.5465 H         1 <0>         0.0800
     39 H11         3.1869   -5.1896    0.3077 H         1 <0>         0.0424
     40 H12         3.9174   -5.4518   -2.6449 H         1 <0>         0.0425
     41 H13         4.3310   -6.6106   -1.3581 H         1 <0>         0.0839
     42 H14         1.5682   -5.1322   -3.2545 H         1 <0>         0.0431
     43 H15         0.3147   -6.0642   -2.4003 H         1 <0>         0.0840
     44 H16         0.8377   -4.8700   -0.3019 H         1 <0>         0.0428
     45 H17         0.4242   -3.7112   -1.5887 H         1 <0>         0.0789
     46 H18         2.6368   -7.2823   -3.7905 H         1 <0>         0.0570
     47 H19         2.7844   -8.6011   -0.3004 H         1 <0>         0.1269
     48 H20         4.5269  -10.1654    0.4611 H         1 <0>         0.1210
     49 H21         6.1691  -11.0551   -1.1436 H         1 <0>         0.1204
     50 H22         6.0682  -10.3813   -3.5098 H         1 <0>         0.1215
     51 H23         4.3204   -8.8235   -4.2728 H         1 <0>         0.1184
     52 H24         0.6516   -8.1018   -0.7728 H         1 <0>         0.1292
     53 H25        -1.5149   -9.2684   -0.8654 H         1 <0>         0.1207
     54 H26        -2.3269  -10.1900   -2.9995 H         1 <0>         0.1201
     55 H27        -0.9727   -9.9442   -5.0413 H         1 <0>         0.1211
     56 H28         1.1899   -8.7704   -4.9505 H         1 <0>         0.1181
@<TRIPOS>BOND
     1    1    6 ar
     2    1    2 ar
     3    1   29 1
     4    2    3 ar
     5    2   30 1
     6    3    4 ar
     7    3   31 1
     8    4    5 ar
     9    4    7 1
    10    5    6 ar
    11    5   32 1
    12    6   33 1
    13    7    8 2
    14    7   34 1
    15    8    9 1
    16    8   35 1
    17    9   10 1
    18    9   36 1
    19    9   37 1
    20   10   15 1
    21   10   11 1
    22   11   12 1
    23   11   38 1
    24   11   39 1
    25   12   13 1
    26   12   40 1
    27   12   41 1
    28   13   14 1
    29   13   16 1
    30   14   15 1
    31   14   42 1
    32   14   43 1
    33   15   44 1
    34   15   45 1
    35   16   17 1
    36   16   23 1
    37   16   46 1
    38   17   22 ar
    39   17   18 ar
    40   18   19 ar
    41   18   47 1
    42   19   20 ar
    43   19   48 1
    44   20   21 ar
    45   20   49 1
    46   21   22 ar
    47   21   50 1
    48   22   51 1
    49   23   28 ar
    50   23   24 ar
    51   24   25 ar
    52   24   52 1
    53   25   26 ar
    54   25   53 1
    55   26   27 ar
    56   26   54 1
    57   27   28 ar
    58   27   55 1
    59   28   56 1
@<TRIPOS>MOLECULE
ZINC00537877
   51    54     0     0     0
SMALL
USER_CHARGES

@<TRIPOS>ATOM
      1 C1         -0.0165    1.3635    0.0095 C.ar      1 <0>        -0.1996
      2 C2          1.1676    2.0893    0.0021 C.ar      1 <0>        -0.0558
      3 C3          2.3794    1.4578   -0.0132 C.ar      1 <0>        -0.1599
      4 C4          2.4313    0.0613   -0.0212 C.ar      1 <0>         0.2387
      5 C5          1.2245   -0.6739   -0.0131 C.ar      1 <0>        -0.2783
      6 C6          0.0021   -0.0041    0.0020 C.ar      1 <0>        -0.0188
      7 C7          1.3072   -2.1409   -0.0223 C.2       1 <0>         0.5603
      8 O1          0.3037   -2.8299   -0.0164 O.2       1 <0>        -0.5531
      9 N1          2.5407   -2.6973   -0.0379 N.am      1 <0>        -0.5574
     10 C8          3.6548   -1.9127   -0.0447 C.2       1 <0>         0.6046
     11 O2          4.8636   -2.5136   -0.0608 O.3       1 <0>        -0.6759
     12 N2          3.6096   -0.6067   -0.0368 N.2       1 <0>        -0.6157
     13 C9          2.6795   -4.1557   -0.0471 C.3       1 <0>         0.0893
     14 C10         2.7130   -4.6557   -1.4927 C.3       1 <0>        -0.0205
     15 N3          2.8521   -6.1181   -1.5019 N.4       1 <0>        -0.3780
     16 C11         4.1496   -6.4882   -0.9239 C.3       1 <0>        -0.0102
     17 C12         4.2660   -8.0125   -0.8566 C.3       1 <0>        -0.1339
     18 C13         4.1514   -8.5907   -2.2700 C.3       1 <0>        -0.1486
     19 C14         2.8272   -8.1366   -2.8908 C.3       1 <0>        -0.1338
     20 C15         2.7641   -6.6078   -2.8828 C.3       1 <0>        -0.0025
     21 C16         4.1868  -10.0958   -2.2032 C.2       1 <0>         0.4088
     22 O3          3.7578  -10.6696   -1.2246 O.2       1 <0>        -0.4351
     23 C17         4.7413  -10.8685   -3.3242 C.ar      1 <0>        -0.1915
     24 C18         5.2423  -10.2093   -4.4524 C.ar      1 <0>        -0.0447
     25 C19         5.7604  -10.9393   -5.4993 C.ar      1 <0>        -0.1657
     26 C20         5.7858  -12.3249   -5.4372 C.ar      1 <0>         0.1414
     27 C21         5.2907  -12.9845   -4.3219 C.ar      1 <0>        -0.1644
     28 C22         4.7756  -12.2663   -3.2654 C.ar      1 <0>        -0.0262
     29 F1          6.2945  -13.0350   -6.4678 F         1 <0>        -0.1274
     30 H1         -0.9623    1.8846    0.0259 H         1 <0>         0.1182
     31 H2          1.1301    3.1686    0.0082 H         1 <0>         0.1206
     32 H3          3.2922    2.0349   -0.0196 H         1 <0>         0.1281
     33 H4         -0.9234   -0.5608    0.0082 H         1 <0>         0.1211
     34 H5          3.6051   -4.4357    0.4558 H         1 <0>         0.1120
     35 H6          1.8332   -4.6044    0.4731 H         1 <0>         0.0972
     36 H7          1.7874   -4.3756   -1.9955 H         1 <0>         0.1295
     37 H8          3.5592   -4.2069   -2.0128 H         1 <0>         0.1372
     38 H9          4.9510   -6.0903   -1.5464 H         1 <0>         0.1348
     39 H10         4.2310   -6.0733    0.0808 H         1 <0>         0.1403
     40 H11         5.2307   -8.2853   -0.4288 H         1 <0>         0.1151
     41 H12         3.4652   -8.4116   -0.2340 H         1 <0>         0.0995
     42 H13         4.9813   -8.2321   -2.8789 H         1 <0>         0.1164
     43 H14         2.7635   -8.4982   -3.9171 H         1 <0>         0.1171
     44 H15         1.9965   -8.5382   -2.3105 H         1 <0>         0.0959
     45 H16         1.8226   -6.2811   -3.3243 H         1 <0>         0.1350
     46 H17         3.5950   -6.2072   -3.4635 H         1 <0>         0.1323
     47 H18         5.2224   -9.1307   -4.5022 H         1 <0>         0.1417
     48 H19         6.1474  -10.4318   -6.3706 H         1 <0>         0.1465
     49 H20         5.3134  -14.0635   -4.2798 H         1 <0>         0.1469
     50 H21         4.3946  -12.7809   -2.3956 H         1 <0>         0.1464
     51 H22         2.1121   -6.5288   -0.9526 H         1 <0>         0.4221
@<TRIPOS>BOND
     1    1    6 ar
     2    1    2 ar
     3    1   30 1
     4    2    3 ar
     5    2   31 1
     6    3    4 ar
     7    3   32 1
     8    4   12 1
     9    4    5 ar
    10    5    6 ar
    11    5    7 1
    12    6   33 1
    13    7    8 2
    14    7    9 am
    15    9   10 1
    16    9   13 1
    17   10   11 1
    18   10   12 2
    19   13   14 1
    20   13   34 1
    21   13   35 1
    22   14   15 1
    23   14   36 1
    24   14   37 1
    25   15   20 1
    26   15   16 1
    27   15   51 1
    28   16   17 1
    29   16   38 1
    30   16   39 1
    31   17   18 1
    32   17   40 1
    33   17   41 1
    34   18   19 1
    35   18   21 1
    36   18   42 1
    37   19   20 1
    38   19   43 1
    39   19   44 1
    40   20   45 1
    41   20   46 1
    42   21   22 2
    43   21   23 1
    44   23   28 ar
    45   23   24 ar
    46   24   25 ar
    47   24   47 1
    48   25   26 ar
    49   25   48 1
    50   26   27 ar
    51   26   29 1
    52   27   28 ar
    53   27   49 1
    54   28   50 1
@<TRIPOS>MOLECULE
ZINC21983537
   57    60     0     0     0
SMALL
USER_CHARGES

@<TRIPOS>ATOM
      1 C1         -0.0000    1.3975   -0.0100 C.ar      1 <0>        -0.1124
      2 C2          0.2064    0.3267    0.8413 C.ar      1 <0>        -0.1213
      3 C3          1.4054   -0.3557    0.8181 C.ar      1 <0>        -0.1168
      4 C4          2.4107    0.0361   -0.0667 C.ar      1 <0>        -0.0692
      5 C5          2.1959    1.1167   -0.9230 C.ar      1 <0>        -0.1030
      6 C6          0.9926    1.7909   -0.8897 C.ar      1 <0>        -0.1158
      7 C7          3.6977   -0.6901   -0.0965 C.2       1 <0>        -0.0866
      8 C8          3.7194   -2.0070    0.0543 C.2       1 <0>        -0.1606
      9 C9          2.4292   -2.7857    0.0637 C.3       1 <0>         0.0725
     10 N1          2.5057   -3.8719   -0.9224 N.3       1 <0>        -0.5325
     11 C10         3.5123   -4.8687   -0.5310 C.3       1 <0>         0.0241
     12 C11         3.6029   -5.9490   -1.6109 C.3       1 <0>        -0.0037
     13 N2          2.2914   -6.5902   -1.7735 N.4       1 <0>        -0.3832
     14 C12         1.3020   -5.5869   -2.1883 C.3       1 <0>        -0.0034
     15 C13         1.1923   -4.5035   -1.1131 C.3       1 <0>         0.0288
     16 C14         2.3832   -7.6394   -2.7976 C.3       1 <0>         0.1339
     17 C15         3.3969   -8.6699   -2.3715 C.ar      1 <0>        -0.1311
     18 C16         3.4615   -9.0707   -1.0501 C.ar      1 <0>        -0.1215
     19 C17         4.3914  -10.0159   -0.6592 C.ar      1 <0>        -0.1029
     20 C18         5.2564  -10.5606   -1.5898 C.ar      1 <0>        -0.0923
     21 C19         5.1912  -10.1605   -2.9113 C.ar      1 <0>        -0.1034
     22 C20         4.2584   -9.2184   -3.3030 C.ar      1 <0>        -0.0864
     23 C21         1.0378   -8.2974   -2.9646 C.ar      1 <0>        -0.1309
     24 C22         0.2518   -8.5545   -1.8569 C.ar      1 <0>        -0.1221
     25 C23        -0.9823   -9.1581   -2.0101 C.ar      1 <0>        -0.1026
     26 C24        -1.4307   -9.5041   -3.2711 C.ar      1 <0>        -0.0925
     27 C25        -0.6451   -9.2462   -4.3789 C.ar      1 <0>        -0.1031
     28 C26         0.5872   -8.6388   -4.2261 C.ar      1 <0>        -0.0865
     29 H1         -0.9418    1.9257    0.0091 H         1 <0>         0.1254
     30 H2         -0.5725    0.0244    1.5257 H         1 <0>         0.1247
     31 H3          1.5656   -1.1910    1.4837 H         1 <0>         0.1222
     32 H4          2.9702    1.4250   -1.6099 H         1 <0>         0.1259
     33 H5          0.8253    2.6277   -1.5517 H         1 <0>         0.1270
     34 H6          4.6205   -0.1479   -0.2410 H         1 <0>         0.1279
     35 H7          4.6617   -2.5218    0.1704 H         1 <0>         0.1190
     36 H8          2.2660   -3.2065    1.0558 H         1 <0>         0.0523
     37 H9          1.6025   -2.1221   -0.1901 H         1 <0>         0.1082
     38 H10         4.4817   -4.3826   -0.4206 H         1 <0>         0.1256
     39 H11         3.2237   -5.3245    0.4161 H         1 <0>         0.0587
     40 H12         3.9048   -5.4948   -2.5547 H         1 <0>         0.1394
     41 H13         4.3389   -6.6969   -1.3159 H         1 <0>         0.1360
     42 H14         1.6157   -5.1346   -3.1291 H         1 <0>         0.1397
     43 H15         0.3322   -6.0663   -2.3212 H         1 <0>         0.1366
     44 H16         0.8655   -4.9533   -0.1756 H         1 <0>         0.0590
     45 H17         0.4691   -3.7510   -1.4275 H         1 <0>         0.1245
     46 H18         2.6913   -7.1967   -3.7448 H         1 <0>         0.1487
     47 H19         2.7857   -8.6451   -0.3230 H         1 <0>         0.1134
     48 H20         4.4423  -10.3286    0.3733 H         1 <0>         0.1350
     49 H21         5.9833  -11.2986   -1.2843 H         1 <0>         0.1361
     50 H22         5.8672  -10.5858   -3.6383 H         1 <0>         0.1376
     51 H23         4.2050   -8.9085   -4.3362 H         1 <0>         0.1334
     52 H24         0.6021   -8.2841   -0.8717 H         1 <0>         0.1133
     53 H25        -1.5961   -9.3595   -1.1446 H         1 <0>         0.1351
     54 H26        -2.3946   -9.9763   -3.3907 H         1 <0>         0.1361
     55 H27        -0.9953   -9.5169   -5.3640 H         1 <0>         0.1376
     56 H28         1.1993   -8.4339   -5.0919 H         1 <0>         0.1334
     57 H29         2.0068   -7.0004   -0.8968 H         1 <0>         0.4130
@<TRIPOS>BOND
     1    1    6 ar
     2    1    2 ar
     3    1   29 1
     4    2    3 ar
     5    2   30 1
     6    3    4 ar
     7    3   31 1
     8    4    5 ar
     9    4    7 1
    10    5    6 ar
    11    5   32 1
    12    6   33 1
    13    7    8 2
    14    7   34 1
    15    8    9 1
    16    8   35 1
    17    9   10 1
    18    9   36 1
    19    9   37 1
    20   10   15 1
    21   10   11 1
    22   11   12 1
    23   11   38 1
    24   11   39 1
    25   12   13 1
    26   12   40 1
    27   12   41 1
    28   13   14 1
    29   13   16 1
    30   13   57 1
    31   14   15 1
    32   14   42 1
    33   14   43 1
    34   15   44 1
    35   15   45 1
    36   16   17 1
    37   16   23 1
    38   16   46 1
    39   17   22 ar
    40   17   18 ar
    41   18   19 ar
    42   18   47 1
    43   19   20 ar
    44   19   48 1
    45   20   21 ar
    46   20   49 1
    47   21   22 ar
    48   21   50 1
    49   22   51 1
    50   23   28 ar
    51   23   24 ar
    52   24   25 ar
    53   24   52 1
    54   25   26 ar
    55   25   53 1
    56   26   27 ar
    57   26   54 1
    58   27   28 ar
    59   27   55 1
    60   28   56 1
@<TRIPOS>MOLECULE
ZINC21984080
   36    38     0     0     0
SMALL
USER_CHARGES

@<TRIPOS>ATOM
      1 C1         -0.4200    1.6618    0.7702 C.3       1 <0>        -0.1501
      2 C2         -0.3364    0.1357    0.7008 C.3       1 <0>        -0.0588
      3 C3          0.3102   -0.3983    1.9805 C.3       1 <0>        -0.1500
      4 C4         -1.7232   -0.4376    0.5617 C.ar      1 <0>        -0.0921
      5 C5         -2.6733   -0.1909    1.5429 C.ar      1 <0>        -0.0210
      6 C6         -3.9474   -0.7056    1.4343 C.ar      1 <0>        -0.1272
      7 C7         -4.2927   -1.4822    0.3326 C.ar      1 <0>         0.1765
      8 C8         -3.3265   -1.7292   -0.6587 C.ar      1 <0>        -0.1681
      9 C9         -2.0392   -1.1922   -0.5321 C.ar      1 <0>        -0.0236
     10 C10        -3.6811   -2.5466   -1.8232 C.2       1 <0>         0.3709
     11 O1         -2.7832   -2.8056   -2.7935 O.3       1 <0>        -0.4089
     12 C11        -4.9938   -3.0514   -1.8904 C.2       1 <0>        -0.3297
     13 C12        -5.4047   -3.8431   -2.9768 C.2       1 <0>         0.0287
     14 C13        -6.7111   -4.3139   -2.9894 C.2       1 <0>        -0.2267
     15 C14        -7.6030   -3.9651   -1.8711 C.cat     1 <0>         0.5427
     16 N1         -7.1666   -3.2058   -0.8557 N.2       1 <0>        -0.5778
     17 C15        -5.9321   -2.7429   -0.8124 C.2       1 <0>         0.4904
     18 O2         -5.5400   -1.9847    0.2303 O.3       1 <0>        -0.1934
     19 N2         -8.8472   -4.4046   -1.8682 N.pl3     1 <0>        -0.7003
     20 C16        -7.1937   -5.1429   -4.0966 C.2       1 <0>         0.5331
     21 O3         -6.4793   -5.3384   -5.0716 O.co2     1 <0>        -0.6452
     22 O4         -8.3115   -5.6403   -4.0470 O.co2     1 <0>        -0.6674
     23 H1          0.5830    2.0765    0.8708 H         1 <0>         0.0669
     24 H2         -0.8807    2.0423   -0.1415 H         1 <0>         0.0595
     25 H3         -1.0220    1.9540    1.6306 H         1 <0>         0.0598
     26 H4          0.2655   -0.1565   -0.1596 H         1 <0>         0.0875
     27 H5         -0.2918   -0.1062    2.8410 H         1 <0>         0.0598
     28 H6          0.3697   -1.4856    1.9311 H         1 <0>         0.0595
     29 H7          1.3132    0.0163    2.0812 H         1 <0>         0.0669
     30 H8         -2.4114    0.4105    2.4008 H         1 <0>         0.1549
     31 H9         -4.6777   -0.5063    2.2046 H         1 <0>         0.1619
     32 H10        -1.2975   -1.3778   -1.2948 H         1 <0>         0.1554
     33 H11        -4.7227   -4.0788   -3.7804 H         1 <0>         0.1678
     34 H12        -9.1462   -5.0187   -2.5570 H         1 <0>         0.4480
     35 H13        -9.4628   -4.1137   -1.1774 H         1 <0>         0.4147
     36 H14        -3.1274   -3.3541   -3.5117 H         1 <0>         0.4357
@<TRIPOS>BOND
     1    1    2 1
     2    1   23 1
     3    1   24 1
     4    1   25 1
     5    2    3 1
     6    2    4 1
     7    2   26 1
     8    3   27 1
     9    3   28 1
    10    3   29 1
    11    4    9 ar
    12    4    5 ar
    13    5    6 ar
    14    5   30 1
    15    6    7 ar
    16    6   31 1
    17    7   18 1
    18    7    8 ar
    19    8    9 ar
    20    8   10 1
    21    9   32 1
    22   10   11 1
    23   10   12 2
    24   11   36 1
    25   12   17 1
    26   12   13 1
    27   13   14 2
    28   13   33 1
    29   14   15 1
    30   14   20 1
    31   15   16 1
    32   15   19 2
    33   16   17 2
    34   17   18 1
    35   19   34 1
    36   19   35 1
    37   20   21 2
    38   20   22 1
@<TRIPOS>MOLECULE
ZINC21984082
   64    66     0     0     0
SMALL
USER_CHARGES

@<TRIPOS>ATOM
      1 C1          3.1023   -2.7084    2.1284 C.3       1 <0>        -0.1076
      2 C2          2.2645   -2.6627    0.8766 C.ar      1 <0>        -0.0692
      3 C3          2.6052   -3.4413   -0.2120 C.ar      1 <0>        -0.1154
      4 C4          1.8372   -3.3996   -1.3612 C.ar      1 <0>        -0.1156
      5 C5          0.7259   -2.5791   -1.4243 C.ar      1 <0>        -0.1161
      6 C6          0.3796   -1.7984   -0.3390 C.ar      1 <0>        -0.0933
      7 C7          1.1457   -1.8420    0.8185 C.ar      1 <0>         0.1359
      8 N1          0.7943   -1.0566    1.9219 N.am      1 <0>        -0.6796
      9 C8          0.6212   -1.6298    3.1294 C.2       1 <0>         0.5134
     10 O1          0.7029   -2.8343    3.2461 O.2       1 <0>        -0.4976
     11 C9          0.3263   -0.7742    4.3344 C.3       1 <0>         0.0379
     12 N2          0.1816   -1.6304    5.5193 N.3       1 <0>        -0.5219
     13 C10        -1.0048   -2.4902    5.4061 C.3       1 <0>         0.0536
     14 C11        -1.0754   -3.4200    6.6197 C.3       1 <0>         0.0586
     15 N3         -1.1272   -2.6149    7.8480 N.3       1 <0>        -0.5292
     16 C12         0.0592   -1.7552    7.9612 C.3       1 <0>         0.0596
     17 C13         0.1297   -0.8253    6.7476 C.3       1 <0>         0.0582
     18 C14        -1.2719   -3.4711    9.0329 C.3       1 <0>         0.0270
     19 C15        -2.7143   -3.9727    9.1266 C.3       1 <0>         0.1190
     20 H1         -2.9853   -4.4752    8.1981 H         1 <0>         0.1080
     21 C16        -2.8378   -4.9552   10.2930 C.3       1 <0>         0.0260
     22 O2         -4.1538   -5.5119   10.3095 O.3       1 <0>        -0.2913
     23 C17        -4.4316   -6.4109   11.2914 C.ar      1 <0>         0.0999
     24 C18        -3.4607   -6.7450   12.2219 C.ar      1 <0>        -0.1753
     25 C19        -3.7449   -7.6586   13.2197 C.ar      1 <0>        -0.1173
     26 C20        -4.9966   -8.2410   13.2918 C.ar      1 <0>        -0.1171
     27 C21        -5.9697   -7.9124   12.3665 C.ar      1 <0>        -0.1733
     28 C22        -5.6933   -6.9928   11.3675 C.ar      1 <0>         0.1000
     29 O3         -6.6513   -6.6639   10.4600 O.3       1 <0>        -0.3050
     30 C23        -7.9230   -7.3006   10.5994 C.3       1 <0>         0.0259
     31 O4         -3.5908   -2.8649    9.3421 O.3       1 <0>        -0.5356
     32 C24        -0.8314   -0.9041   -0.4088 C.3       1 <0>        -0.1102
     33 H2          2.7959   -3.5571    2.7399 H         1 <0>         0.0837
     34 H3          4.1530   -2.8153    1.8587 H         1 <0>         0.0614
     35 H4          2.9639   -1.7858    2.6921 H         1 <0>         0.0565
     36 H5          3.4725   -4.0832   -0.1659 H         1 <0>         0.1249
     37 H6          2.1061   -4.0089   -2.2114 H         1 <0>         0.1245
     38 H7          0.1284   -2.5485   -2.3234 H         1 <0>         0.1254
     39 H8          0.6752   -0.0996    1.8178 H         1 <0>         0.4065
     40 H9          1.1455   -0.0725    4.4910 H         1 <0>         0.1068
     41 H10        -0.5989   -0.2219    4.1701 H         1 <0>         0.0674
     42 H11        -1.9009   -1.8706    5.3701 H         1 <0>         0.0403
     43 H12        -0.9371   -3.0853    4.4954 H         1 <0>         0.0978
     44 H13        -1.9703   -4.0386    6.5523 H         1 <0>         0.0803
     45 H14        -0.1922   -4.0585    6.6404 H         1 <0>         0.0457
     46 H15        -0.0085   -1.1600    8.8719 H         1 <0>         0.0815
     47 H16         0.9552   -2.3748    7.9972 H         1 <0>         0.0441
     48 H17         1.0247   -0.2067    6.8150 H         1 <0>         0.0818
     49 H18        -0.7534   -0.1868    6.7269 H         1 <0>         0.0469
     50 H19        -0.5958   -4.3222    8.9509 H         1 <0>         0.0501
     51 H20        -1.0277   -2.8980    9.9273 H         1 <0>         0.0811
     52 H21        -2.1065   -5.7546   10.1737 H         1 <0>         0.0693
     53 H22        -2.6533   -4.4310   11.2307 H         1 <0>         0.0654
     54 H23        -2.4818   -6.2920   12.1673 H         1 <0>         0.1328
     55 H24        -2.9872   -7.9182   13.9443 H         1 <0>         0.1272
     56 H25        -5.2147   -8.9546   14.0727 H         1 <0>         0.1275
     57 H26        -6.9466   -8.3691   12.4248 H         1 <0>         0.1354
     58 H27        -8.5928   -6.9503    9.8141 H         1 <0>         0.1015
     59 H28        -7.7997   -8.3805   10.5168 H         1 <0>         0.0547
     60 H29        -8.3465   -7.0567   11.5737 H         1 <0>         0.0549
     61 H30        -3.4075   -2.3702   10.1525 H         1 <0>         0.3702
     62 H31        -1.6887   -1.4189    0.0249 H         1 <0>         0.0706
     63 H32        -0.6384    0.0129    0.1479 H         1 <0>         0.0619
     64 H33        -1.0429   -0.6595   -1.4497 H         1 <0>         0.0694
@<TRIPOS>BOND
     1    1    2 1
     2    1   33 1
     3    1   34 1
     4    1   35 1
     5    2    7 ar
     6    2    3 ar
     7    3    4 ar
     8    3   36 1
     9    4    5 ar
    10    4   37 1
    11    5    6 ar
    12    5   38 1
    13    6    7 ar
    14    6   32 1
    15    7    8 1
    16    8    9 am
    17    8   39 1
    18    9   10 2
    19    9   11 1
    20   11   12 1
    21   11   40 1
    22   11   41 1
    23   12   17 1
    24   12   13 1
    25   13   14 1
    26   13   42 1
    27   13   43 1
    28   14   15 1
    29   14   44 1
    30   14   45 1
    31   15   16 1
    32   15   18 1
    33   16   17 1
    34   16   46 1
    35   16   47 1
    36   17   48 1
    37   17   49 1
    38   18   19 1
    39   18   50 1
    40   18   51 1
    41   19   20 1
    42   19   21 1
    43   19   31 1
    44   21   22 1
    45   21   52 1
    46   21   53 1
    47   22   23 1
    48   23   28 ar
    49   23   24 ar
    50   24   25 ar
    51   24   54 1
    52   25   26 ar
    53   25   55 1
    54   26   27 ar
    55   26   56 1
    56   27   28 ar
    57   27   57 1
    58   28   29 1
    59   29   30 1
    60   30   58 1
    61   30   59 1
    62   30   60 1
    63   31   61 1
    64   32   62 1
    65   32   63 1
    66   32   64 1
@<TRIPOS>MOLECULE
ZINC21984084
   64    66     0     0     0
SMALL
USER_CHARGES

@<TRIPOS>ATOM
      1 C1          1.7177   -2.1258    2.1651 C.3       1 <0>        -0.1075
      2 C2          0.8031   -1.7405    1.0310 C.ar      1 <0>        -0.0690
      3 C3          0.8758   -2.4113   -0.1741 C.ar      1 <0>        -0.1155
      4 C4          0.0373   -2.0581   -1.2154 C.ar      1 <0>        -0.1154
      5 C5         -0.8768   -1.0331   -1.0537 C.ar      1 <0>        -0.1162
      6 C6         -0.9548   -0.3587    0.1491 C.ar      1 <0>        -0.0933
      7 C7         -0.1177   -0.7145    1.1985 C.ar      1 <0>         0.1360
      8 N1         -0.1982   -0.0371    2.4202 N.am      1 <0>        -0.6798
      9 C8         -0.3882   -0.7273    3.5621 C.2       1 <0>         0.5138
     10 O1         -0.5548   -1.9281    3.5244 O.2       1 <0>        -0.4982
     11 C9         -0.3938   -0.0070    4.8858 C.3       1 <0>         0.0377
     12 N2         -0.6182   -0.9740    5.9686 N.3       1 <0>        -0.5220
     13 C10        -1.9654   -1.5552    5.8848 C.3       1 <0>         0.0536
     14 C11        -2.1309   -2.6125    6.9789 C.3       1 <0>         0.0612
     15 N3         -1.9085   -1.9930    8.2928 N.3       1 <0>        -0.5287
     16 C12        -0.5613   -1.4119    8.3766 C.3       1 <0>         0.0542
     17 C13        -0.3958   -0.3545    7.2825 C.3       1 <0>         0.0588
     18 C14        -2.1329   -2.9601    9.3756 C.3       1 <0>         0.0270
     19 C15        -2.1385   -2.2288   10.7195 C.3       1 <0>         0.1167
     20 H1         -1.2143   -1.6614   10.8282 H         1 <0>         0.1091
     21 C16        -2.2473   -3.2488   11.8547 C.3       1 <0>         0.0260
     22 O2         -2.1356   -2.5771   13.1110 O.3       1 <0>        -0.2916
     23 C17        -2.2122   -3.3450   14.2307 C.ar      1 <0>         0.0999
     24 C18        -2.3852   -4.7155   14.1222 C.ar      1 <0>        -0.1752
     25 C19        -2.4623   -5.4948   15.2615 C.ar      1 <0>        -0.1171
     26 C20        -2.3677   -4.9098   16.5106 C.ar      1 <0>        -0.1170
     27 C21        -2.1956   -3.5430   16.6259 C.ar      1 <0>        -0.1732
     28 C22        -2.1112   -2.7570   15.4879 C.ar      1 <0>         0.0999
     29 O3         -1.9358   -1.4130   15.5994 O.3       1 <0>        -0.3052
     30 C23        -1.8405   -0.8787   16.9213 C.3       1 <0>         0.0258
     31 O4         -3.2539   -1.3371   10.7719 O.3       1 <0>        -0.5362
     32 C24        -1.9508    0.7586    0.3242 C.3       1 <0>        -0.1101
     33 H2          1.2979   -2.9800    2.6963 H         1 <0>         0.0832
     34 H3          2.6974   -2.3908    1.7677 H         1 <0>         0.0616
     35 H4          1.8193   -1.2852    2.8515 H         1 <0>         0.0567
     36 H5          1.5886   -3.2123   -0.3034 H         1 <0>         0.1250
     37 H6          0.0966   -2.5836   -2.1570 H         1 <0>         0.1245
     38 H7         -1.5301   -0.7593   -1.8690 H         1 <0>         0.1254
     39 H8         -0.1171    0.9292    2.4452 H         1 <0>         0.4066
     40 H9          0.5659    0.4882    5.0340 H         1 <0>         0.1070
     41 H10        -1.1909    0.7364    4.8916 H         1 <0>         0.0674
     42 H11        -2.7092   -0.7704    6.0220 H         1 <0>         0.0394
     43 H12        -2.1013   -2.0187    4.9077 H         1 <0>         0.0978
     44 H13        -3.1392   -3.0244    6.9371 H         1 <0>         0.0793
     45 H14        -1.4049   -3.4110    6.8258 H         1 <0>         0.0453
     46 H15        -0.4254   -0.9484    9.3538 H         1 <0>         0.0844
     47 H16         0.1825   -2.1967    8.2394 H         1 <0>         0.0445
     48 H17         0.6125    0.0573    7.3244 H         1 <0>         0.0820
     49 H18        -1.1218    0.4440    7.4356 H         1 <0>         0.0477
     50 H19        -3.0926   -3.4553    9.2274 H         1 <0>         0.0829
     51 H20        -1.3358   -3.7035    9.3698 H         1 <0>         0.0477
     52 H21        -3.2112   -3.7546   11.7976 H         1 <0>         0.0659
     53 H22        -1.4462   -3.9821   11.7623 H         1 <0>         0.0694
     54 H23        -2.4600   -5.1749   13.1477 H         1 <0>         0.1329
     55 H24        -2.5972   -6.5629   15.1755 H         1 <0>         0.1273
     56 H25        -2.4289   -5.5220   17.3982 H         1 <0>         0.1276
     57 H26        -2.1223   -3.0885   17.6028 H         1 <0>         0.1355
     58 H27        -1.7024    0.2012   16.8677 H         1 <0>         0.1015
     59 H28        -2.7557   -1.1012   17.4700 H         1 <0>         0.0549
     60 H29        -0.9906   -1.3286   17.4347 H         1 <0>         0.0547
     61 H30        -4.1117   -1.7743   10.6814 H         1 <0>         0.3719
     62 H31        -2.8560    0.3687    0.7897 H         1 <0>         0.0704
     63 H32        -1.5203    1.5329    0.9591 H         1 <0>         0.0620
     64 H33        -2.1966    1.1822   -0.6496 H         1 <0>         0.0694
@<TRIPOS>BOND
     1    1    2 1
     2    1   33 1
     3    1   34 1
     4    1   35 1
     5    2    7 ar
     6    2    3 ar
     7    3    4 ar
     8    3   36 1
     9    4    5 ar
    10    4   37 1
    11    5    6 ar
    12    5   38 1
    13    6    7 ar
    14    6   32 1
    15    7    8 1
    16    8    9 am
    17    8   39 1
    18    9   10 2
    19    9   11 1
    20   11   12 1
    21   11   40 1
    22   11   41 1
    23   12   17 1
    24   12   13 1
    25   13   14 1
    26   13   42 1
    27   13   43 1
    28   14   15 1
    29   14   44 1
    30   14   45 1
    31   15   16 1
    32   15   18 1
    33   16   17 1
    34   16   46 1
    35   16   47 1
    36   17   48 1
    37   17   49 1
    38   18   19 1
    39   18   50 1
    40   18   51 1
    41   19   20 1
    42   19   21 1
    43   19   31 1
    44   21   22 1
    45   21   52 1
    46   21   53 1
    47   22   23 1
    48   23   28 ar
    49   23   24 ar
    50   24   25 ar
    51   24   54 1
    52   25   26 ar
    53   25   55 1
    54   26   27 ar
    55   26   56 1
    56   27   28 ar
    57   27   57 1
    58   28   29 1
    59   29   30 1
    60   30   58 1
    61   30   59 1
    62   30   60 1
    63   31   61 1
    64   32   62 1
    65   32   63 1
    66   32   64 1
@<TRIPOS>MOLECULE
ZINC00537891
   47    50     0     0     0
SMALL
USER_CHARGES

@<TRIPOS>ATOM
      1 C1         -0.6081    1.4949    0.2474 C.3       1 <0>        -0.1687
      2 C2         -0.5328   -0.0330    0.2194 C.3       1 <0>         0.0677
      3 H1         -0.1675   -0.3618   -0.7535 H         1 <0>         0.1427
      4 C3         -1.9263   -0.6186    0.4675 C.3       1 <0>         0.0488
      5 O1         -2.3242   -0.3064    1.8081 O.3       1 <0>        -0.2972
      6 C4         -1.4654   -0.6989    2.7921 C.2       1 <0>         0.0133
      7 C5         -0.1146   -0.8037    2.5253 C.2       1 <0>         0.1794
      8 N1          0.3816   -0.4982    1.2694 N.pl3     1 <0>        -0.4376
      9 C6          1.6897   -0.6207    0.9983 C.2       1 <0>         0.2656
     10 C7          2.5925   -1.0365    1.9622 C.2       1 <0>        -0.2948
     11 C8          2.1414   -1.3432    3.2694 C.2       1 <0>         0.3660
     12 O2          3.0103   -1.7405    4.2232 O.3       1 <0>        -0.4260
     13 C9          0.7682   -1.2240    3.5534 C.2       1 <0>        -0.1344
     14 C10         0.2697   -1.5182    4.8394 C.2       1 <0>        -0.0221
     15 C11        -1.0570   -1.4069    5.0975 C.2       1 <0>         0.0359
     16 C12        -1.9507   -0.9965    4.0785 C.2       1 <0>         0.2543
     17 N2         -3.2560   -0.8914    4.3393 N.pl3     1 <0>        -0.6047
     18 C13        -4.1129    0.0143    3.5585 C.3       1 <0>         0.0947
     19 C14        -4.9167    0.8822    4.5323 C.3       1 <0>        -0.0238
     20 N3         -5.6444    0.0181    5.4704 N.4       1 <0>        -0.3863
     21 C15        -4.6931   -0.7307    6.3014 C.3       1 <0>        -0.0200
     22 C16        -3.8792   -1.6826    5.4115 C.3       1 <0>         0.0544
     23 C17        -6.4996    0.8449    6.3323 C.3       1 <0>        -0.0480
     24 F1         -1.5281   -1.6892    6.3318 F         1 <0>        -0.1124
     25 C18         4.0177   -1.1600    1.6291 C.2       1 <0>         0.5386
     26 O3          4.3935   -0.9924    0.4765 O.co2     1 <0>        -0.6302
     27 O4          4.8294   -1.4306    2.5042 O.co2     1 <0>        -0.6498
     28 H2          0.3842    1.9109    0.0727 H         1 <0>         0.0811
     29 H3         -1.2886    1.8395   -0.5312 H         1 <0>         0.0978
     30 H4         -0.9734    1.8230    1.2205 H         1 <0>         0.0709
     31 H5         -2.6364   -0.1829   -0.2354 H         1 <0>         0.1479
     32 H6         -1.8967   -1.7004    0.3374 H         1 <0>         0.0870
     33 H7          2.0467   -0.3901    0.0055 H         1 <0>         0.2123
     34 H8          0.9460   -1.8331    5.6203 H         1 <0>         0.1778
     35 H9         -3.4933    0.6506    2.9266 H         1 <0>         0.1459
     36 H10        -4.7944   -0.5692    2.9396 H         1 <0>         0.0998
     37 H11        -4.2381    1.5303    5.0869 H         1 <0>         0.1342
     38 H12        -5.6271    1.4921    3.9742 H         1 <0>         0.1473
     39 H13        -4.0212   -0.0338    6.8024 H         1 <0>         0.1361
     40 H14        -5.2387   -1.3092    7.0469 H         1 <0>         0.1479
     41 H15        -4.5376   -2.4346    4.9765 H         1 <0>         0.1016
     42 H16        -3.1051   -2.1688    6.0053 H         1 <0>         0.1609
     43 H17        -7.2116    1.3952    5.7172 H         1 <0>         0.1270
     44 H18        -7.0404    0.2046    7.0292 H         1 <0>         0.1275
     45 H19        -5.8815    1.5484    6.8901 H         1 <0>         0.1231
     46 H20        -6.2191   -0.6296    4.9525 H         1 <0>         0.4260
     47 H21         3.9371   -1.7086    3.9489 H         1 <0>         0.4426
@<TRIPOS>BOND
     1    1    2 1
     2    1   28 1
     3    1   29 1
     4    1   30 1
     5    2    3 1
     6    2    8 1
     7    2    4 1
     8    4    5 1
     9    4   31 1
    10    4   32 1
    11    5    6 1
    12    6   16 1
    13    6    7 2
    14    7   13 1
    15    7    8 1
    16    8    9 1
    17    9   10 2
    18    9   33 1
    19   10   11 1
    20   10   25 1
    21   11   12 1
    22   11   13 2
    23   12   47 1
    24   13   14 1
    25   14   15 2
    26   14   34 1
    27   15   16 1
    28   15   24 1
    29   16   17 2
    30   17   22 1
    31   17   18 1
    32   18   19 1
    33   18   35 1
    34   18   36 1
    35   19   20 1
    36   19   37 1
    37   19   38 1
    38   20   21 1
    39   20   23 1
    40   20   46 1
    41   21   22 1
    42   21   39 1
    43   21   40 1
    44   22   41 1
    45   22   42 1
    46   23   43 1
    47   23   44 1
    48   23   45 1
    49   25   26 2
    50   25   27 1
@<TRIPOS>MOLECULE
ZINC00537891
   45    48     0     0     0
SMALL
USER_CHARGES

@<TRIPOS>ATOM
      1 C1         -0.0187    1.5258    0.0104 C.3       1 <0>        -0.1628
      2 C2          0.0021   -0.0041    0.0020 C.3       1 <0>         0.0888
      3 H1          0.5122   -0.3561   -0.8946 H         1 <0>         0.1154
      4 C3         -1.4339   -0.5347    0.0146 C.3       1 <0>         0.0499
      5 O1         -2.0442   -0.1776    1.2608 O.3       1 <0>        -0.2867
      6 C4         -1.3856   -0.5840    2.3818 C.ar      1 <0>         0.0802
      7 C5         -0.0024   -0.7526    2.3510 C.ar      1 <0>         0.1394
      8 N1          0.7119   -0.4920    1.1943 N.pl3     1 <0>        -0.4950
      9 C6          2.0401   -0.6691    1.1222 C.2       1 <0>         0.1594
     10 C7          2.7930   -1.0996    2.1955 C.2       1 <0>        -0.2966
     11 C8          2.1171   -1.3781    3.4742 C.2       1 <0>         0.4178
     12 O2          2.7379   -1.7513    4.4543 O.2       1 <0>        -0.4439
     13 C9          0.6554   -1.1854    3.5159 C.ar      1 <0>        -0.1439
     14 C10        -0.0666   -1.4283    4.6875 C.ar      1 <0>        -0.0878
     15 C11        -1.4214   -1.2500    4.7040 C.ar      1 <0>         0.0740
     16 C12        -2.0892   -0.8289    3.5524 C.ar      1 <0>         0.1598
     17 N2         -3.4738   -0.6522    3.5792 N.pl3     1 <0>        -0.6622
     18 C13        -4.0622    0.6478    3.9357 C.3       1 <0>         0.1544
     19 C14        -5.1096    0.4239    5.0316 C.3       1 <0>         0.0391
     20 N3         -6.0720   -0.5919    4.5846 N.3       1 <0>        -0.5402
     21 C15        -5.4176   -1.8901    4.3746 C.3       1 <0>         0.0392
     22 C16        -4.3827   -1.7595    3.2458 C.3       1 <0>         0.1541
     23 C17        -7.1885   -0.7122    5.5317 C.3       1 <0>         0.0255
     24 F1         -2.1172   -1.4826    5.8384 F         1 <0>        -0.1328
     25 C18         4.2425   -1.2774    2.0651 C.2       1 <0>         0.5383
     26 O3          4.7943   -1.0435    0.9977 O.co2     1 <0>        -0.7037
     27 O4          4.9010   -1.6598    3.0236 O.co2     1 <0>        -0.6638
     28 H2          1.0039    1.9031    0.0027 H         1 <0>         0.0705
     29 H3         -0.5459    1.8868   -0.8726 H         1 <0>         0.0763
     30 H4         -0.5289    1.8773    0.9072 H         1 <0>         0.0665
     31 H5         -1.9950   -0.0909   -0.8078 H         1 <0>         0.1268
     32 H6         -1.4238   -1.6196   -0.0899 H         1 <0>         0.0720
     33 H7          2.5399   -0.4669    0.1864 H         1 <0>         0.1680
     34 H8          0.4459   -1.7571    5.5795 H         1 <0>         0.1512
     35 H9         -3.2823    1.3137    4.3050 H         1 <0>         0.0706
     36 H10        -4.5378    1.0872    3.0589 H         1 <0>         0.0606
     37 H11        -4.6165    0.0822    5.9417 H         1 <0>         0.0387
     38 H12        -5.6335    1.3588    5.2304 H         1 <0>         0.0786
     39 H13        -4.9202   -2.1996    5.2938 H         1 <0>         0.0391
     40 H14        -6.1649   -2.6335    4.0969 H         1 <0>         0.0781
     41 H15        -4.8886   -1.5470    2.3039 H         1 <0>         0.0602
     42 H16        -3.8149   -2.6858    3.1588 H         1 <0>         0.0701
     43 H17        -7.7027    0.2457    5.6107 H         1 <0>         0.0669
     44 H18        -7.8860   -1.4708    5.1766 H         1 <0>         0.0665
     45 H19        -6.8052   -1.0006    6.5104 H         1 <0>         0.0236
@<TRIPOS>BOND
     1    1    2 1
     2    1   28 1
     3    1   29 1
     4    1   30 1
     5    2    3 1
     6    2    8 1
     7    2    4 1
     8    4    5 1
     9    4   31 1
    10    4   32 1
    11    5    6 1
    12    6   16 ar
    13    6    7 ar
    14    7   13 ar
    15    7    8 1
    16    8    9 1
    17    9   10 2
    18    9   33 1
    19   10   11 1
    20   10   25 1
    21   11   12 2
    22   11   13 1
    23   13   14 ar
    24   14   15 ar
    25   14   34 1
    26   15   16 ar
    27   15   24 1
    28   16   17 1
    29   17   22 1
    30   17   18 1
    31   18   19 1
    32   18   35 1
    33   18   36 1
    34   19   20 1
    35   19   37 1
    36   19   38 1
    37   20   21 1
    38   20   23 1
    39   21   22 1
    40   21   39 1
    41   21   40 1
    42   22   41 1
    43   22   42 1
    44   23   43 1
    45   23   44 1
    46   23   45 1
    47   25   26 2
    48   25   27 1
@<TRIPOS>MOLECULE
ZINC00538065
   65    68     0     0     0
SMALL
USER_CHARGES

@<TRIPOS>ATOM
      1 C1         -0.0046    1.5434   -0.0099 C.3       1 <0>        -0.1442
      2 C2          0.0229    0.0139   -0.0350 C.3       1 <0>        -0.0468
      3 C3          0.7494   -0.4955    1.1831 C.2       1 <0>         0.2719
      4 N1          1.2669    0.2399    2.1135 N.2       1 <0>        -0.2714
      5 N2          1.8500   -0.6074    3.0659 N.am      1 <0>        -0.4536
      6 C4          1.6503   -1.8756    2.6504 C.2       1 <0>         0.6518
      7 O1          2.0165   -2.8876    3.2210 O.2       1 <0>        -0.5409
      8 N3          0.9657   -1.8167    1.4905 N.am      1 <0>        -0.5542
      9 C5          0.5304   -2.9653    0.6921 C.3       1 <0>         0.1311
     10 C6          1.6236   -3.3309   -0.3139 C.3       1 <0>         0.0385
     11 O2          2.7863   -3.7766    0.3871 O.3       1 <0>        -0.3006
     12 C7          3.8577   -4.1424   -0.3647 C.ar      1 <0>         0.1290
     13 C8          3.7932   -4.0683   -1.7486 C.ar      1 <0>        -0.2114
     14 C9          4.8837   -4.4402   -2.5106 C.ar      1 <0>        -0.0804
     15 C10         6.0387   -4.8865   -1.8953 C.ar      1 <0>        -0.1582
     16 C11         6.1053   -4.9617   -0.5163 C.ar      1 <0>        -0.0793
     17 C12         5.0196   -4.5851    0.2505 C.ar      1 <0>        -0.1493
     18 C13         2.5473   -0.1929    4.2858 C.3       1 <0>         0.1640
     19 C14         4.0357   -0.0069    3.9843 C.3       1 <0>        -0.1336
     20 C15         4.7639    0.4259    5.2583 C.3       1 <0>         0.0606
     21 N4          6.1930    0.6045    4.9688 N.3       1 <0>        -0.5350
     22 C16         6.8225   -0.6748    4.6154 C.3       1 <0>         0.0367
     23 C17         8.2593   -0.4212    4.1471 C.3       1 <0>         0.1247
     24 N5          8.9596    0.3507    5.1849 N.pl3     1 <0>        -0.6271
     25 C18         8.3222    1.5763    5.6896 C.3       1 <0>         0.1261
     26 C19         6.8828    1.2441    6.0971 C.3       1 <0>         0.0401
     27 C20        10.1973   -0.0688    5.6778 C.ar      1 <0>         0.2344
     28 C21        10.8965    0.7298    6.5744 C.ar      1 <0>        -0.1977
     29 C22        12.1198    0.3124    7.0605 C.ar      1 <0>        -0.0565
     30 C23        12.6499   -0.8990    6.6559 C.ar      1 <0>        -0.1732
     31 C24        11.9566   -1.6973    5.7630 C.ar      1 <0>         0.0172
     32 C25        10.7289   -1.2876    5.2772 C.ar      1 <0>        -0.1963
     33 Cl1        12.6262   -3.2170    5.2574 Cl        1 <0>        -0.0716
     34 H1          1.0164    1.9252   -0.0097 H         1 <0>         0.0653
     35 H2         -0.5301    1.9119   -0.8909 H         1 <0>         0.0686
     36 H3         -0.5196    1.8829    0.8888 H         1 <0>         0.0659
     37 H4         -0.9980   -0.3679   -0.0352 H         1 <0>         0.0968
     38 H5          0.5379   -0.3256   -0.9337 H         1 <0>         0.0941
     39 H6          0.3428   -3.8144    1.3494 H         1 <0>         0.1083
     40 H7         -0.3848   -2.7105    0.1577 H         1 <0>         0.1173
     41 H8          1.2653   -4.1271   -0.9665 H         1 <0>         0.0838
     42 H9          1.8738   -2.4552   -0.9128 H         1 <0>         0.0678
     43 H10         2.8910   -3.7205   -2.2297 H         1 <0>         0.1255
     44 H11         4.8340   -4.3827   -3.5879 H         1 <0>         0.1248
     45 H12         6.8901   -5.1772   -2.4928 H         1 <0>         0.1243
     46 H13         7.0085   -5.3110   -0.0380 H         1 <0>         0.1294
     47 H14         5.0737   -4.6398    1.3277 H         1 <0>         0.1293
     48 H15         2.1283    0.7482    4.6419 H         1 <0>         0.0952
     49 H16         2.4247   -0.9583    5.0522 H         1 <0>         0.0926
     50 H17         4.4547   -0.9481    3.6282 H         1 <0>         0.0689
     51 H18         4.1583    0.7584    3.2179 H         1 <0>         0.0802
     52 H19         4.3450    1.3671    5.6144 H         1 <0>         0.0813
     53 H20         4.6414   -0.3394    6.0247 H         1 <0>         0.0387
     54 H21         6.8342   -1.3278    5.4881 H         1 <0>         0.0403
     55 H22         6.2569   -1.1492    3.8134 H         1 <0>         0.0888
     56 H23         8.7677   -1.3731    3.9932 H         1 <0>         0.0866
     57 H24         8.2464    0.1450    3.2158 H         1 <0>         0.0724
     58 H25         8.8720    1.9452    6.5555 H         1 <0>         0.0878
     59 H26         8.3152    2.3345    4.9066 H         1 <0>         0.0726
     60 H27         6.3610    2.1614    6.3697 H         1 <0>         0.0882
     61 H28         6.8937    0.5644    6.9492 H         1 <0>         0.0398
     62 H29        10.4838    1.6764    6.8905 H         1 <0>         0.1281
     63 H30        12.6633    0.9331    7.7574 H         1 <0>         0.1312
     64 H31        13.6071   -1.2226    7.0371 H         1 <0>         0.1294
     65 H32        10.1858   -1.9127    4.5839 H         1 <0>         0.1321
@<TRIPOS>BOND
     1    1    2 1
     2    1   34 1
     3    1   35 1
     4    1   36 1
     5    2    3 1
     6    2   37 1
     7    2   38 1
     8    3    8 1
     9    3    4 2
    10    4    5 1
    11    5    6 am
    12    5   18 1
    13    6    7 2
    14    6    8 am
    15    8    9 1
    16    9   10 1
    17    9   39 1
    18    9   40 1
    19   10   11 1
    20   10   41 1
    21   10   42 1
    22   11   12 1
    23   12   17 ar
    24   12   13 ar
    25   13   14 ar
    26   13   43 1
    27   14   15 ar
    28   14   44 1
    29   15   16 ar
    30   15   45 1
    31   16   17 ar
    32   16   46 1
    33   17   47 1
    34   18   19 1
    35   18   48 1
    36   18   49 1
    37   19   20 1
    38   19   50 1
    39   19   51 1
    40   20   21 1
    41   20   52 1
    42   20   53 1
    43   21   26 1
    44   21   22 1
    45   22   23 1
    46   22   54 1
    47   22   55 1
    48   23   24 1
    49   23   56 1
    50   23   57 1
    51   24   25 1
    52   24   27 1
    53   25   26 1
    54   25   58 1
    55   25   59 1
    56   26   60 1
    57   26   61 1
    58   27   32 ar
    59   27   28 ar
    60   28   29 ar
    61   28   62 1
    62   29   30 ar
    63   29   63 1
    64   30   31 ar
    65   30   64 1
    66   31   32 ar
    67   31   33 1
    68   32   65 1
@<TRIPOS>MOLECULE
ZINC19364242
   34    33     0     0     0
SMALL
USER_CHARGES

@<TRIPOS>ATOM
      1 C1         -0.5471    1.6294   -0.8421 C.3       1 <0>        -0.0294
      2 C2         -0.4827    0.1009   -0.8583 C.3       1 <0>        -0.0497
      3 N1         -1.8452   -0.4461   -0.9075 N.4       1 <0>        -0.3244
      4 C3         -2.4760   -0.0752   -2.1813 C.3       1 <0>        -0.0924
      5 C4         -1.6325   -0.5776   -3.3246 C.2       1 <0>         0.4962
      6 O1         -0.6609   -1.2799   -3.1027 O.co2     1 <0>        -0.6699
      7 O2         -1.9218   -0.2819   -4.4715 O.co2     1 <0>        -0.6521
      8 C5         -1.7896   -1.9098   -0.7966 C.3       1 <0>        -0.0953
      9 C6         -3.1884   -2.4583   -0.6797 C.2       1 <0>         0.4957
     10 O3         -4.1438   -1.7012   -0.7019 O.co2     1 <0>        -0.6841
     11 O4         -3.3646   -3.6590   -0.5629 O.co2     1 <0>        -0.6615
     12 N2          0.8043    2.1745   -0.6559 N.4       1 <0>        -0.3270
     13 C7          1.6301    1.8464   -1.8257 C.3       1 <0>        -0.0920
     14 C8          3.0473    2.2974   -1.5826 C.2       1 <0>         0.4928
     15 O5          3.3421    2.8417   -0.5322 O.co2     1 <0>        -0.6696
     16 O6          3.8991    2.1180   -2.4362 O.co2     1 <0>        -0.6557
     17 C9          0.7273    3.6336   -0.5046 C.3       1 <0>        -0.0833
     18 C10         0.0231    3.9685    0.7850 C.2       1 <0>         0.4971
     19 O7         -0.2705    3.0808    1.5675 O.co2     1 <0>        -0.6857
     20 O8         -0.2529    5.1271    1.0458 O.co2     1 <0>        -0.6603
     21 H1         -0.9555    1.9860   -1.7877 H         1 <0>         0.1231
     22 H2         -1.1872    1.9575   -0.0231 H         1 <0>         0.1481
     23 H3          0.0736   -0.2301   -1.7353 H         1 <0>         0.1764
     24 H4          0.0178   -0.2513    0.0437 H         1 <0>         0.1229
     25 H5         -3.4688   -0.5215   -2.2387 H         1 <0>         0.1545
     26 H6         -2.5614    1.0098   -2.2422 H         1 <0>         0.1084
     27 H7         -1.3101   -2.3235   -1.6837 H         1 <0>         0.1671
     28 H8         -1.2161   -2.1855    0.0884 H         1 <0>         0.1083
     29 H9          1.6149    0.7690   -1.9905 H         1 <0>         0.1249
     30 H10         1.2330    2.3541   -2.7047 H         1 <0>         0.1200
     31 H11         1.7341    4.0508   -0.4878 H         1 <0>         0.1558
     32 H12         0.1725    4.0569   -1.3420 H         1 <0>         0.1072
     33 H13        -2.3860   -0.0711   -0.1427 H         1 <0>         0.4080
     34 H14         1.2183    1.7720    0.1716 H         1 <0>         0.4258
@<TRIPOS>BOND
     1    1    2 1
     2    1   12 1
     3    1   21 1
     4    1   22 1
     5    2    3 1
     6    2   23 1
     7    2   24 1
     8    3    4 1
     9    3    8 1
    10    3   33 1
    11    4    5 1
    12    4   25 1
    13    4   26 1
    14    5    6 2
    15    5    7 1
    16    8    9 1
    17    8   27 1
    18    8   28 1
    19    9   10 2
    20    9   11 1
    21   12   13 1
    22   12   17 1
    23   12   34 1
    24   13   14 1
    25   13   29 1
    26   13   30 1
    27   14   15 2
    28   14   16 1
    29   17   18 1
    30   17   31 1
    31   17   32 1
    32   18   19 2
    33   18   20 1
@<TRIPOS>MOLECULE
ZINC00538273
   47    50     0     0     0
SMALL
USER_CHARGES

@<TRIPOS>ATOM
      1 C1          0.1199    1.0956   -0.5812 C.3       1 <0>        -0.1816
      2 C2          0.1738   -0.4175   -0.3609 C.3       1 <0>         0.0715
      3 H1         -0.8372   -0.8246   -0.3806 H         1 <0>         0.1292
      4 C3          1.0083   -1.0666   -1.4694 C.3       1 <0>         0.0478
      5 O1          1.1793   -2.4558   -1.1625 O.3       1 <0>        -0.2993
      6 C4          1.7179   -2.7352    0.0587 C.2       1 <0>         0.0125
      7 C5          1.5340   -1.8579    1.1092 C.2       1 <0>         0.1790
      8 N1          0.7918   -0.7021    0.9399 N.pl3     1 <0>        -0.4377
      9 C6          0.6290    0.1640    1.9512 C.2       1 <0>         0.2588
     10 C7          1.1762   -0.0718    3.2010 C.2       1 <0>        -0.2939
     11 C8          1.9276   -1.2497    3.4341 C.2       1 <0>         0.3652
     12 O2          2.4597   -1.4990    4.6495 O.3       1 <0>        -0.4260
     13 C9          2.1086   -2.1531    2.3723 C.2       1 <0>        -0.1342
     14 C10         2.8487   -3.3396    2.5546 C.2       1 <0>        -0.0215
     15 C11         3.0202   -4.2009    1.5212 C.2       1 <0>         0.0361
     16 C12         2.4595   -3.9147    0.2527 C.2       1 <0>         0.2548
     17 N2          2.6345   -4.7663   -0.7609 N.pl3     1 <0>        -0.6048
     18 C13         1.6738   -4.8256   -1.8734 C.3       1 <0>         0.0946
     19 C14         1.2713   -6.2881   -2.0901 C.3       1 <0>        -0.0237
     20 N3          2.4771   -7.1027   -2.2865 N.4       1 <0>        -0.3863
     21 C15         3.2911   -7.0939   -1.0644 C.3       1 <0>        -0.0200
     22 C16         3.7966   -5.6674   -0.7997 C.3       1 <0>         0.0544
     23 C17         2.0871   -8.4831   -2.6030 C.3       1 <0>        -0.0480
     24 F1          3.7295   -5.3363    1.7025 F         1 <0>        -0.1122
     25 C18         0.9772    0.8991    4.2850 C.2       1 <0>         0.5386
     26 O3          0.4141    1.9619    4.0589 O.co2     1 <0>        -0.6302
     27 O4          1.3746    0.6452    5.4144 O.co2     1 <0>        -0.6495
     28 H2          1.1312    1.5018   -0.5614 H         1 <0>         0.0821
     29 H3         -0.3373    1.3060   -1.5480 H         1 <0>         0.1048
     30 H4         -0.4725    1.5569    0.2090 H         1 <0>         0.0914
     31 H5          0.4918   -0.9639   -2.4237 H         1 <0>         0.1480
     32 H6          1.9830   -0.5818   -1.5246 H         1 <0>         0.0875
     33 H7          0.0583    1.0661    1.7868 H         1 <0>         0.2142
     34 H8          3.2802   -3.5627    3.5192 H         1 <0>         0.1781
     35 H9          0.7912   -4.2354   -1.6271 H         1 <0>         0.1458
     36 H10         2.1379   -4.4354   -2.7792 H         1 <0>         0.0998
     37 H11         0.7274   -6.6485   -1.2170 H         1 <0>         0.1343
     38 H12         0.6346   -6.3630   -2.9716 H         1 <0>         0.1474
     39 H13         2.6861   -7.4300   -0.2223 H         1 <0>         0.1362
     40 H14         4.1426   -7.7626   -1.1901 H         1 <0>         0.1479
     41 H15         4.4714   -5.3607   -1.5989 H         1 <0>         0.1017
     42 H16         4.3181   -5.6340    0.1569 H         1 <0>         0.1610
     43 H17         1.4895   -8.4919   -3.5145 H         1 <0>         0.1270
     44 H18         2.9814   -9.0889   -2.7490 H         1 <0>         0.1275
     45 H19         1.5011   -8.8928   -1.7803 H         1 <0>         0.1232
     46 H20         3.0162   -6.7244   -3.0509 H         1 <0>         0.4260
     47 H21         2.2080   -0.8576    5.3281 H         1 <0>         0.4425
@<TRIPOS>BOND
     1    1    2 1
     2    1   28 1
     3    1   29 1
     4    1   30 1
     5    2    3 1
     6    2    8 1
     7    2    4 1
     8    4    5 1
     9    4   31 1
    10    4   32 1
    11    5    6 1
    12    6   16 1
    13    6    7 2
    14    7   13 1
    15    7    8 1
    16    8    9 1
    17    9   10 2
    18    9   33 1
    19   10   11 1
    20   10   25 1
    21   11   12 1
    22   11   13 2
    23   12   47 1
    24   13   14 1
    25   14   15 2
    26   14   34 1
    27   15   16 1
    28   15   24 1
    29   16   17 2
    30   17   22 1
    31   17   18 1
    32   18   19 1
    33   18   35 1
    34   18   36 1
    35   19   20 1
    36   19   37 1
    37   19   38 1
    38   20   21 1
    39   20   23 1
    40   20   46 1
    41   21   22 1
    42   21   39 1
    43   21   40 1
    44   22   41 1
    45   22   42 1
    46   23   43 1
    47   23   44 1
    48   23   45 1
    49   25   26 2
    50   25   27 1
@<TRIPOS>MOLECULE
ZINC00538273
   45    48     0     0     0
SMALL
USER_CHARGES

@<TRIPOS>ATOM
      1 C1         -0.0187    1.5258    0.0104 C.3       1 <0>        -0.1689
      2 C2          0.0021   -0.0041    0.0020 C.3       1 <0>         0.0912
      3 H1         -1.0203   -0.3819    0.0098 H         1 <0>         0.0987
      4 C3          0.7201   -0.4985   -1.2565 C.3       1 <0>         0.0496
      5 O1          0.8511   -1.9233   -1.1803 O.3       1 <0>        -0.2895
      6 C4          1.4737   -2.4030   -0.0677 C.ar      1 <0>         0.0791
      7 C5          1.4165   -1.6828    1.1242 C.ar      1 <0>         0.1391
      8 N1          0.7148   -0.4920    1.1925 N.pl3     1 <0>        -0.4959
      9 C6          0.6609    0.2389    2.3166 C.2       1 <0>         0.1533
     10 C7          1.2772   -0.1508    3.4882 C.2       1 <0>        -0.2968
     11 C8          2.0263   -1.4188    3.5118 C.2       1 <0>         0.4174
     12 O2          2.5801   -1.8122    4.5236 O.2       1 <0>        -0.4440
     13 C9          2.0773   -2.1901    2.2569 C.ar      1 <0>        -0.1438
     14 C10         2.7674   -3.4034    2.1893 C.ar      1 <0>        -0.0871
     15 C11         2.8070   -4.1020    1.0154 C.ar      1 <0>         0.0740
     16 C12         2.1627   -3.6063   -0.1197 C.ar      1 <0>         0.1605
     17 N2          2.2112   -4.3266   -1.3147 N.pl3     1 <0>        -0.6625
     18 C13         1.1827   -5.3279   -1.6349 C.3       1 <0>         0.1541
     19 C14         1.8806   -6.6356   -2.0234 C.3       1 <0>         0.0392
     20 N3          2.8460   -6.3710   -3.0986 N.3       1 <0>        -0.5403
     21 C15         3.9073   -5.4600   -2.6496 C.3       1 <0>         0.0392
     22 C16         3.2890   -4.0998   -2.2895 C.3       1 <0>         0.1540
     23 C17         3.4119   -7.6232   -3.6180 C.3       1 <0>         0.0255
     24 F1          3.4724   -5.2761    0.9529 F         1 <0>        -0.1326
     25 C18         1.1882    0.6842    4.6901 C.2       1 <0>         0.5386
     26 O3          0.5634    1.7364    4.6595 O.co2     1 <0>        -0.7037
     27 O4          1.7387    0.3291    5.7242 O.co2     1 <0>        -0.6637
     28 H2          1.0039    1.9031    0.0027 H         1 <0>         0.0722
     29 H3         -0.5459    1.8868   -0.8726 H         1 <0>         0.0822
     30 H4         -0.5289    1.8773    0.9072 H         1 <0>         0.0834
     31 H5          0.1379   -0.2315   -2.1384 H         1 <0>         0.1267
     32 H6          1.7086   -0.0431   -1.3163 H         1 <0>         0.0727
     33 H7          0.1134    1.1698    2.3038 H         1 <0>         0.1727
     34 H8          3.2697   -3.7887    3.0644 H         1 <0>         0.1516
     35 H9          0.5506   -5.4953   -0.7628 H         1 <0>         0.0709
     36 H10         0.5754   -4.9753   -2.4686 H         1 <0>         0.0607
     37 H11         2.4034   -7.0403   -1.1568 H         1 <0>         0.0388
     38 H12         1.1386   -7.3550   -2.3697 H         1 <0>         0.0787
     39 H13         4.4018   -5.8811   -1.7742 H         1 <0>         0.0392
     40 H14         4.6351   -5.3268   -3.4501 H         1 <0>         0.0782
     41 H15         2.8803   -3.6314   -3.1849 H         1 <0>         0.0602
     42 H16         4.0501   -3.4548   -1.8504 H         1 <0>         0.0701
     43 H17         2.6107   -8.2475   -4.0135 H         1 <0>         0.0669
     44 H18         4.1232   -7.3984   -4.4127 H         1 <0>         0.0665
     45 H19         3.9216   -8.1529   -2.8132 H         1 <0>         0.0237
@<TRIPOS>BOND
     1    1    2 1
     2    1   28 1
     3    1   29 1
     4    1   30 1
     5    2    3 1
     6    2    8 1
     7    2    4 1
     8    4    5 1
     9    4   31 1
    10    4   32 1
    11    5    6 1
    12    6   16 ar
    13    6    7 ar
    14    7   13 ar
    15    7    8 1
    16    8    9 1
    17    9   10 2
    18    9   33 1
    19   10   11 1
    20   10   25 1
    21   11   12 2
    22   11   13 1
    23   13   14 ar
    24   14   15 ar
    25   14   34 1
    26   15   16 ar
    27   15   24 1
    28   16   17 1
    29   17   22 1
    30   17   18 1
    31   18   19 1
    32   18   35 1
    33   18   36 1
    34   19   20 1
    35   19   37 1
    36   19   38 1
    37   20   21 1
    38   20   23 1
    39   21   22 1
    40   21   39 1
    41   21   40 1
    42   22   41 1
    43   22   42 1
    44   23   43 1
    45   23   44 1
    46   23   45 1
    47   25   26 2
    48   25   27 1
@<TRIPOS>MOLECULE
ZINC00538483
   48    51     0     0     0
SMALL
USER_CHARGES

@<TRIPOS>ATOM
      1 C1         -0.0539    1.3527    0.0615 C.2       1 <0>        -0.0419
      2 C2          1.1542    2.0799    0.0647 C.2       1 <0>        -0.1805
      3 C3          2.3373    1.4414    0.0473 C.2       1 <0>         0.1261
      4 N1          2.3931    0.0681    0.0260 N.am      1 <0>        -0.4810
      5 C4          1.2244   -0.6706    0.0228 C.2       1 <0>         0.2949
      6 C5         -0.0259   -0.0020    0.0411 C.2       1 <0>        -0.1232
      7 N2          1.5390   -1.9449    0.0012 N.2       1 <0>        -0.2842
      8 N3          2.9372   -2.0429   -0.0100 N.am      1 <0>        -0.4308
      9 C6          3.4336   -0.7889    0.0057 C.2       1 <0>         0.6418
     10 O1          4.6139   -0.4844    0.0018 O.2       1 <0>        -0.5396
     11 C7          3.7176   -3.2825   -0.0338 C.3       1 <0>         0.1607
     12 C8          3.9988   -3.7358    1.4002 C.3       1 <0>        -0.1356
     13 C9          4.8139   -5.0304    1.3753 C.3       1 <0>         0.0605
     14 N4          5.0838   -5.4656    2.7521 N.3       1 <0>        -0.5353
     15 C10         5.9560   -4.5083    3.4454 C.3       1 <0>         0.0359
     16 C11         6.0660   -4.8997    4.9229 C.3       1 <0>         0.1242
     17 N5          6.4959   -6.3040    5.0034 N.pl3     1 <0>        -0.6276
     18 C12         5.7520   -7.3052    4.2240 C.3       1 <0>         0.1260
     19 C13         5.6544   -6.8191    2.7740 C.3       1 <0>         0.0402
     20 C14         7.5814   -6.6769    5.7993 C.ar      1 <0>         0.2340
     21 C15         7.9034   -8.0198    5.9525 C.ar      1 <0>        -0.1973
     22 C16         8.9774   -8.3857    6.7395 C.ar      1 <0>        -0.0564
     23 C17         9.7325   -7.4175    7.3757 C.ar      1 <0>        -0.1728
     24 C18         9.4149   -6.0790    7.2257 C.ar      1 <0>         0.0170
     25 C19         8.3444   -5.7060    6.4345 C.ar      1 <0>        -0.1963
     26 Cl1        10.3653   -4.8670    8.0267 Cl        1 <0>        -0.0714
     27 H1         -0.9994    1.8743    0.0798 H         1 <0>         0.1505
     28 H2          1.1289    3.1594    0.0810 H         1 <0>         0.1574
     29 H3          3.2534    2.0135    0.0497 H         1 <0>         0.1702
     30 H4         -0.9465   -0.5667    0.0388 H         1 <0>         0.1590
     31 H5          3.1547   -4.0563   -0.5557 H         1 <0>         0.1019
     32 H6          4.6610   -3.1080   -0.5513 H         1 <0>         0.0973
     33 H7          4.5617   -2.9620    1.9221 H         1 <0>         0.0694
     34 H8          3.0554   -3.9103    1.9176 H         1 <0>         0.0836
     35 H9          4.2509   -5.8042    0.8534 H         1 <0>         0.0829
     36 H10         5.7572   -4.8559    0.8578 H         1 <0>         0.0398
     37 H11         6.9465   -4.5231    2.9905 H         1 <0>         0.0409
     38 H12         5.5334   -3.5068    3.3649 H         1 <0>         0.0883
     39 H13         6.8002   -4.2632    5.4166 H         1 <0>         0.0869
     40 H14         5.0951   -4.7858    5.4051 H         1 <0>         0.0728
     41 H15         6.2786   -8.2590    4.2557 H         1 <0>         0.0882
     42 H16         4.7510   -7.4225    4.6390 H         1 <0>         0.0729
     43 H17         5.0130   -7.4935    2.2067 H         1 <0>         0.0888
     44 H18         6.6491   -6.8017    2.3285 H         1 <0>         0.0403
     45 H19         7.3140   -8.7768    5.4566 H         1 <0>         0.1282
     46 H20         9.2279   -9.4295    6.8587 H         1 <0>         0.1315
     47 H21        10.5715   -7.7066    7.9913 H         1 <0>         0.1296
     48 H22         8.0994   -4.6611    6.3138 H         1 <0>         0.1321
@<TRIPOS>BOND
     1    1    6 2
     2    1    2 1
     3    1   27 1
     4    2    3 2
     5    2   28 1
     6    3    4 1
     7    3   29 1
     8    4    9 am
     9    4    5 1
    10    5    6 1
    11    5    7 2
    12    6   30 1
    13    7    8 1
    14    8    9 am
    15    8   11 1
    16    9   10 2
    17   11   12 1
    18   11   31 1
    19   11   32 1
    20   12   13 1
    21   12   33 1
    22   12   34 1
    23   13   14 1
    24   13   35 1
    25   13   36 1
    26   14   19 1
    27   14   15 1
    28   15   16 1
    29   15   37 1
    30   15   38 1
    31   16   17 1
    32   16   39 1
    33   16   40 1
    34   17   18 1
    35   17   20 1
    36   18   19 1
    37   18   41 1
    38   18   42 1
    39   19   43 1
    40   19   44 1
    41   20   25 ar
    42   20   21 ar
    43   21   22 ar
    44   21   45 1
    45   22   23 ar
    46   22   46 1
    47   23   24 ar
    48   23   47 1
    49   24   25 ar
    50   24   26 1
    51   25   48 1
@<TRIPOS>MOLECULE
ZINC00895081
   19    18     0     0     0
SMALL
USER_CHARGES

@<TRIPOS>ATOM
      1 C1         -0.0184    1.5028    0.0103 C.3       1 <0>        -0.1234
      2 C2          0.0021   -0.0041    0.0020 C.2       1 <0>         0.4548
      3 O1          1.0565   -0.5939   -0.0112 O.2       1 <0>        -0.4540
      4 O2         -1.1511   -0.6910    0.0093 O.3       1 <0>        -0.5313
      5 C3          1.4170    2.0324   -0.0006 C.3       1 <0>         0.0901
      6 C4          1.3994    3.5564    0.1335 C.3       1 <0>        -0.1924
      7 C5          2.8132    4.0780    0.1228 C.2       1 <0>         0.4906
      8 O3          3.7482    3.3027    0.0177 O.co2     1 <0>        -0.6439
      9 O4          3.0220    5.2753    0.2193 O.co2     1 <0>        -0.7413
     10 C6          2.1814    1.4354    1.1529 C.2       1 <0>         0.5440
     11 O5          3.1755    0.7618    0.9419 O.co2     1 <0>        -0.6492
     12 O6          1.8058    1.6261    2.2970 O.co2     1 <0>        -0.7335
     13 O7          2.0493    1.6696   -1.2297 O.3       1 <0>        -0.5036
     14 H1         -0.5455    1.8639   -0.8728 H         1 <0>         0.0801
     15 H2         -0.5286    1.8543    0.9071 H         1 <0>         0.1031
     16 H3          0.8465    3.9881   -0.7007 H         1 <0>         0.0380
     17 H4          0.9171    3.8331    1.0711 H         1 <0>         0.0632
     18 H5          1.6098    2.0202   -2.0165 H         1 <0>         0.3211
     19 H6         -1.0370   -1.6512    0.0031 H         1 <0>         0.3877
@<TRIPOS>BOND
     1    1    2 1
     2    1    5 1
     3    1   14 1
     4    1   15 1
     5    2    3 2
     6    2    4 1
     7    4   19 1
     8    5    6 1
     9    5   10 1
    10    5   13 1
    11    6    7 1
    12    6   16 1
    13    6   17 1
    14    7    8 2
    15    7    9 1
    16   10   11 2
    17   10   12 1
    18   13   18 1
@<TRIPOS>MOLECULE
ZINC00538550
   49    53     0     0     0
SMALL
USER_CHARGES

@<TRIPOS>ATOM
      1 C1          2.6265   -1.6014    3.5768 C.ar      1 <0>        -0.1277
      2 C2          3.6378   -0.6762    3.3482 C.ar      1 <0>        -0.0756
      3 C3          3.9137   -0.2684    2.0698 C.ar      1 <0>        -0.0789
      4 C4          3.1814   -0.7831    1.0209 C.ar      1 <0>        -0.1286
      5 C5          2.1474   -1.7253    1.2248 C.ar      1 <0>        -0.1409
      6 C6          1.8931   -2.1205    2.5549 C.ar      1 <0>        -0.0356
      7 C7          1.5160   -2.1252   -0.0237 C.2       1 <0>         0.3892
      8 N1          1.9318   -1.6135   -1.1448 N.2       1 <0>        -0.4422
      9 S1          3.1728   -0.5662   -0.7370 S.3       1 <0>         0.1982
     10 N2          0.4719   -3.0515   -0.0182 N.pl3     1 <0>        -0.6554
     11 C8         -0.9266   -2.6120    0.1018 C.3       1 <0>         0.1547
     12 C9         -1.7384   -3.2579   -1.0260 C.3       1 <0>         0.0408
     13 N3         -1.5399   -4.7132   -0.9964 N.3       1 <0>        -0.5317
     14 C10        -0.1365   -5.0648   -1.2509 C.3       1 <0>         0.0356
     15 C11         0.7405   -4.4925   -0.1385 C.3       1 <0>         0.1543
     16 C12        -2.4324   -5.3857   -1.9498 C.3       1 <0>         0.0614
     17 C13        -2.3803   -6.8972   -1.7181 C.3       1 <0>        -0.0762
     18 C14        -3.2960   -7.5871   -2.6961 C.ar      1 <0>        -0.0908
     19 C15        -2.7761   -8.1815   -3.8330 C.ar      1 <0>        -0.0501
     20 C16        -3.6154   -8.8107   -4.7241 C.ar      1 <0>        -0.1350
     21 C17        -4.9858   -8.8591   -4.4990 C.ar      1 <0>         0.1527
     22 C18        -5.5028   -8.2587   -3.3533 C.ar      1 <0>        -0.1290
     23 C19        -4.6582   -7.6332   -2.4574 C.ar      1 <0>         0.0011
     24 Cl1        -5.3098   -6.8941   -1.0281 Cl        1 <0>        -0.0490
     25 N4         -5.6206   -9.5461   -5.5344 N.am      1 <0>        -0.6589
     26 C20        -4.7535   -9.9760   -6.4664 C.2       1 <0>         0.5295
     27 O1         -5.0259  -10.5979   -7.4715 O.2       1 <0>        -0.4966
     28 C21        -3.3726   -9.5384   -6.0263 C.3       1 <0>        -0.1158
     29 H1          2.4208   -1.9190    4.5884 H         1 <0>         0.1325
     30 H2          4.2051   -0.2790    4.1770 H         1 <0>         0.1377
     31 H3          4.6981    0.4506    1.8851 H         1 <0>         0.1363
     32 H4          1.1132   -2.8380    2.7630 H         1 <0>         0.1314
     33 H5         -1.3270   -2.9242    1.0664 H         1 <0>         0.0687
     34 H6         -0.9781   -1.5267    0.0148 H         1 <0>         0.0714
     35 H7         -2.7958   -3.0322   -0.8883 H         1 <0>         0.0841
     36 H8         -1.4041   -2.8647   -1.9860 H         1 <0>         0.0388
     37 H9         -0.0322   -6.1495   -1.2765 H         1 <0>         0.0869
     38 H10         0.1755   -4.6464   -2.2079 H         1 <0>         0.0384
     39 H11         1.7907   -4.6499   -0.3844 H         1 <0>         0.0710
     40 H12         0.5035   -4.9890    0.8025 H         1 <0>         0.0681
     41 H13        -3.4528   -5.0309   -1.8047 H         1 <0>         0.0802
     42 H14        -2.1115   -5.1628   -2.9673 H         1 <0>         0.0353
     43 H15        -1.3600   -7.2520   -1.8632 H         1 <0>         0.0779
     44 H16        -2.7013   -7.1201   -0.7005 H         1 <0>         0.0914
     45 H17        -1.7129   -8.1512   -4.0207 H         1 <0>         0.1394
     46 H18        -6.5655   -8.2866   -3.1629 H         1 <0>         0.1391
     47 H19        -6.5779   -9.6966   -5.5762 H         1 <0>         0.4161
     48 H20        -2.9322   -8.8664   -6.7629 H         1 <0>         0.1276
     49 H21        -2.7306  -10.4045   -5.8659 H         1 <0>         0.1281
@<TRIPOS>BOND
     1    1    6 ar
     2    1    2 ar
     3    1   29 1
     4    2    3 ar
     5    2   30 1
     6    3    4 ar
     7    3   31 1
     8    4    9 1
     9    4    5 ar
    10    5    6 ar
    11    5    7 1
    12    6   32 1
    13    7    8 2
    14    7   10 1
    15    8    9 1
    16   10   15 1
    17   10   11 1
    18   11   12 1
    19   11   33 1
    20   11   34 1
    21   12   13 1
    22   12   35 1
    23   12   36 1
    24   13   14 1
    25   13   16 1
    26   14   15 1
    27   14   37 1
    28   14   38 1
    29   15   39 1
    30   15   40 1
    31   16   17 1
    32   16   41 1
    33   16   42 1
    34   17   18 1
    35   17   43 1
    36   17   44 1
    37   18   23 ar
    38   18   19 ar
    39   19   20 ar
    40   19   45 1
    41   20   28 1
    42   20   21 ar
    43   21   22 ar
    44   21   25 1
    45   22   23 ar
    46   22   46 1
    47   23   24 1
    48   25   26 am
    49   25   47 1
    50   26   27 2
    51   26   28 1
    52   28   48 1
    53   28   49 1
@<TRIPOS>MOLECULE
ZINC03830972
   48    50     0     0     0
SMALL
USER_CHARGES
methyl isopropyl 2,6-dimethyl-4-(8-oxa-7,9-diazabicyclo[4.3.0]nona-2,4,6,9-tetraen-5-yl)-1,4-dihydropyridine-3,5-dicarboxylate
@<TRIPOS>ATOM
      1 C1          5.2952    2.0697    2.2456 C.2       1 <0>        -0.0146
      2 C2          4.4636    2.5144    1.0701 C.2       1 <0>        -0.0730
      3 C3          3.4373    3.3607    1.2650 C.3       1 <0>        -0.1008
      4 C4          2.5767    3.8242    0.1241 C.3       1 <0>         0.0122
      5 H1          2.4005    4.8956    0.2193 H         1 <0>         0.1245
      6 C5          3.2452    3.5486   -1.1928 C.3       1 <0>        -0.1121
      7 C6          4.2783    2.6942   -1.2891 C.2       1 <0>         0.1354
      8 N1          4.7616    2.0513   -0.1823 N.2       1 <0>        -0.4513
      9 C7          4.9120    2.4415   -2.6328 C.3       1 <0>        -0.0969
     10 C8          2.7771    4.2020   -2.3563 C.2       1 <0>         0.4933
     11 O1          3.3089    3.9882   -3.4298 O.2       1 <0>        -0.5009
     12 O2          1.7405    5.0624   -2.2762 O.3       1 <0>        -0.3383
     13 C9          1.3201    5.6866   -3.4910 C.3       1 <0>         0.0821
     14 C10        -0.1792    5.9826   -3.4201 C.3       1 <0>        -0.1489
     15 C11         2.0897    6.9947   -3.6851 C.3       1 <0>        -0.1727
     16 C12         1.2571    3.0983    0.1724 C.ar      1 <0>        -0.0500
     17 C13         1.2166    1.7457    0.0853 C.ar      1 <0>        -0.0755
     18 C14         0.0095    1.0363    0.1259 C.ar      1 <0>        -0.0850
     19 C15        -1.1869    1.6624    0.2495 C.ar      1 <0>        -0.0565
     20 C16        -1.2248    3.0667    0.3507 C.ar      1 <0>         0.0153
     21 C17         0.0543    3.8185    0.3076 C.ar      1 <0>         0.0391
     22 N2         -0.3378    5.0638    0.4191 N.2       1 <0>        -0.3221
     23 O3         -1.5488    5.0923    0.5090 O.3       1 <0>         0.3814
     24 N3         -2.1160    4.0186    0.4788 N.2       1 <0>        -0.3415
     25 C18         3.1625    3.8255    2.5720 C.2       1 <0>         0.4904
     26 O4          3.7814    3.3781    3.5194 O.2       1 <0>        -0.5036
     27 O5          2.2140    4.7651    2.7685 O.3       1 <0>        -0.3524
     28 C19         1.9891    5.1883    4.1147 C.3       1 <0>         0.0355
     29 H2          3.9946    4.1967   -1.3283 H         1 <0>         0.1431
     30 H3          5.3044    0.9808    2.2929 H         1 <0>         0.1433
     31 H4          5.6870    2.9441    2.7651 H         1 <0>         0.1504
     32 H5          2.6054    2.8382    1.4519 H         1 <0>         0.1196
     33 H6          5.7280    1.7275   -2.5211 H         1 <0>         0.0764
     34 H7          4.1656    2.0362   -3.3160 H         1 <0>         0.0898
     35 H8          5.3007    3.3778   -3.0332 H         1 <0>         0.0858
     36 H9          1.5195    5.0199   -4.3300 H         1 <0>         0.0868
     37 H10        -0.3786    6.6493   -2.5811 H         1 <0>         0.0703
     38 H11        -0.4999    6.4587   -4.3467 H         1 <0>         0.0816
     39 H12        -0.7274    5.0507   -3.2817 H         1 <0>         0.0592
     40 H13         1.8903    7.6614   -2.8462 H         1 <0>         0.0680
     41 H14         3.1578    6.7837   -3.7357 H         1 <0>         0.0606
     42 H15         1.7690    7.4708   -4.6117 H         1 <0>         0.0772
     43 H16         2.1423    1.1993   -0.0180 H         1 <0>         0.1430
     44 H17         0.0320   -0.0410    0.0523 H         1 <0>         0.1501
     45 H18        -2.1019    1.0894    0.2739 H         1 <0>         0.1506
     46 H19         1.2037    5.9438    4.1317 H         1 <0>         0.1047
     47 H20         1.6838    4.3333    4.7180 H         1 <0>         0.0608
     48 H21         2.9082    5.6102    4.5213 H         1 <0>         0.0658
@<TRIPOS>BOND
     1    1   30 1
     2    1   31 1
     3    1    2 2
     4    2    3 1
     5    2    8 1
     6    3    4 1
     7    3   25 1
     8    3   32 1
     9    4    5 1
    10    4    6 1
    11    4   16 1
    12    6   10 1
    13    6    7 1
    14    6   29 1
    15    7    9 1
    16    7    8 2
    17    9   33 1
    18    9   34 1
    19    9   35 1
    20   10   11 2
    21   10   12 1
    22   12   13 1
    23   13   14 1
    24   13   15 1
    25   13   36 1
    26   14   37 1
    27   14   38 1
    28   14   39 1
    29   15   40 1
    30   15   41 1
    31   15   42 1
    32   16   21 ar
    33   16   17 ar
    34   17   18 ar
    35   17   43 1
    36   18   19 ar
    37   18   44 1
    38   19   20 ar
    39   19   45 1
    40   20   24 2
    41   20   21 ar
    42   21   22 2
    43   22   23 1
    44   23   24 1
    45   25   26 2
    46   25   27 1
    47   27   28 1
    48   28   46 1
    49   28   47 1
    50   28   48 1
@<TRIPOS>MOLECULE
ZINC03830972
   48    50     0     0     0
SMALL
USER_CHARGES
methyl isopropyl 2,6-dimethyl-4-(8-oxa-7,9-diazabicyclo[4.3.0]nona-2,4,6,9-tetraen-5-yl)-1,4-dihydropyridine-3,5-dicarboxylate
@<TRIPOS>ATOM
      1 C1          5.2952    2.0697    2.2456 C.2       1 <0>        -0.3841
      2 C2          4.4636    2.5144    1.0701 C.2       1 <0>         0.3042
      3 C3          3.4373    3.3607    1.2650 C.3       1 <0>        -0.1759
      4 C4          2.5762    3.8235    0.1243 C.3       1 <0>         0.0388
      5 H1          2.3993    4.8947    0.2198 H         1 <0>         0.1237
      6 C5          3.2451    3.5488   -1.1926 C.3       1 <0>        -0.2619
      7 C6          4.2788    2.6951   -1.2891 C.2       1 <0>         0.2030
      8 N1          4.7622    2.0521   -0.1824 N.2       1 <0>        -0.5128
      9 C7          4.9129    2.4434   -2.6327 C.3       1 <0>        -0.0998
     10 C8          2.7769    4.2024   -2.3559 C.2       1 <0>         0.5127
     11 O1          3.3090    3.9895   -3.4294 O.2       1 <0>        -0.5094
     12 O2          1.7397    5.0622   -2.2758 O.3       1 <0>        -0.3427
     13 C9          1.3192    5.6867   -3.4904 C.3       1 <0>         0.0823
     14 C10        -0.1803    5.9817   -3.4196 C.3       1 <0>        -0.1481
     15 C11         2.0880    6.9954   -3.6837 C.3       1 <0>        -0.1696
     16 C12         1.2569    3.0968    0.1719 C.ar      1 <0>        -0.0533
     17 C13         1.2173    1.7442    0.0843 C.ar      1 <0>        -0.0835
     18 C14         0.0106    1.0340    0.1242 C.ar      1 <0>        -0.0846
     19 C15        -1.1862    1.6593    0.2478 C.ar      1 <0>        -0.0559
     20 C16        -1.2250    3.0635    0.3496 C.ar      1 <0>         0.0154
     21 C17         0.0537    3.8161    0.3072 C.ar      1 <0>         0.0399
     22 N2         -0.3392    5.0611    0.4191 N.2       1 <0>        -0.3184
     23 O3         -1.5502    5.0889    0.5087 O.3       1 <0>         0.3819
     24 N3         -2.1168    4.0148    0.4780 N.2       1 <0>        -0.3418
     25 C18         3.1625    3.8255    2.5720 C.2       1 <0>         0.4894
     26 O4          3.7814    3.3781    3.5194 O.2       1 <0>        -0.4830
     27 O5          2.2140    4.7651    2.7685 O.3       1 <0>        -0.3511
     28 C19         1.9891    5.1883    4.1147 C.3       1 <0>         0.0358
     29 H2          6.1855    2.4918    2.4164 H         1 <0>         0.1716
     30 H3          5.3044    0.9808    2.2929 H         1 <0>         0.1621
     31 H4          5.6870    2.9441    2.7651 H         1 <0>         0.2180
     32 H5          2.6054    2.8382    1.4523 H         1 <0>         0.1789
     33 H6          5.7294    1.7298   -2.5211 H         1 <0>         0.0714
     34 H7          4.1670    2.0379   -3.3163 H         1 <0>         0.0936
     35 H8          5.3011    3.3801   -3.0326 H         1 <0>         0.0941
     36 H9          1.5192    5.0205   -4.3296 H         1 <0>         0.0817
     37 H10        -0.3803    6.6479   -2.5804 H         1 <0>         0.0687
     38 H11        -0.5011    6.4581   -4.3461 H         1 <0>         0.0784
     39 H12        -0.7280    5.0494   -3.2818 H         1 <0>         0.0564
     40 H13         1.8880    7.6616   -2.8445 H         1 <0>         0.0660
     41 H14         3.1563    6.7850   -3.7341 H         1 <0>         0.0604
     42 H15         1.7673    7.4716   -4.6102 H         1 <0>         0.0732
     43 H16         2.1433    1.1983   -0.0191 H         1 <0>         0.1393
     44 H17         0.0338   -0.0432    0.0502 H         1 <0>         0.1504
     45 H18        -2.1009    1.0857    0.2717 H         1 <0>         0.1509
     46 H19         1.2037    5.9438    4.1317 H         1 <0>         0.1052
     47 H20         1.6838    4.3333    4.7180 H         1 <0>         0.0631
     48 H21         2.9082    5.6102    4.5213 H         1 <0>         0.0656
@<TRIPOS>BOND
     1    1   30 1
     2    1   31 1
     3    1    2 2
     4    2    3 1
     5    2    8 1
     6    3    4 1
     7    3   25 1
     8    3   32 1
     9    4    5 1
    10    4    6 1
    11    4   16 1
    12    6   10 1
    13    6   29 1
    14    6    7 1
    15    7    9 1
    16    7    8 2
    17    9   33 1
    18    9   34 1
    19    9   35 1
    20   10   11 2
    21   10   12 1
    22   12   13 1
    23   13   14 1
    24   13   15 1
    25   13   36 1
    26   14   37 1
    27   14   38 1
    28   14   39 1
    29   15   40 1
    30   15   41 1
    31   15   42 1
    32   16   21 ar
    33   16   17 ar
    34   17   18 ar
    35   17   43 1
    36   18   19 ar
    37   18   44 1
    38   19   20 ar
    39   19   45 1
    40   20   24 2
    41   20   21 ar
    42   21   22 2
    43   22   23 1
    44   23   24 1
    45   25   26 2
    46   25   27 1
    47   27   28 1
    48   28   46 1
    49   28   47 1
    50   28   48 1
@<TRIPOS>MOLECULE
ZINC03830972
   48    50     0     0     0
SMALL
USER_CHARGES
methyl isopropyl 2,6-dimethyl-4-(8-oxa-7,9-diazabicyclo[4.3.0]nona-2,4,6,9-tetraen-5-yl)-1,4-dihydropyridine-3,5-dicarboxylate
@<TRIPOS>ATOM
      1 C1          5.2952    2.0697    2.2456 C.3       1 <0>        -0.0916
      2 C2          4.4636    2.5144    1.0701 C.2       1 <0>         0.2045
      3 C3          3.4373    3.3607    1.2650 C.2       1 <0>        -0.2667
      4 C4          2.5768    3.8242    0.1241 C.3       1 <0>         0.0487
      5 H1          2.4006    4.8957    0.2193 H         1 <0>         0.1224
      6 C5          3.2465    3.5501   -1.1928 C.3       1 <0>        -0.1298
      7 C6          4.2795    2.6957   -1.2891 C.2       1 <0>         0.2560
      8 N1          4.7622    2.0521   -0.1824 N.2       1 <0>        -0.5211
      9 C7          4.9139    2.4437   -2.6326 C.3       1 <0>        -0.1216
     10 C8          2.7791    4.2043   -2.3561 C.2       1 <0>         0.4960
     11 O1          3.3114    3.9912   -3.4295 O.2       1 <0>        -0.4976
     12 O2          1.7426    5.0648   -2.2761 O.3       1 <0>        -0.3309
     13 C9          1.3229    5.6899   -3.4907 C.3       1 <0>         0.0817
     14 C10        -0.1764    5.9860   -3.4203 C.3       1 <0>        -0.1497
     15 C11         2.0928    6.9980   -3.6835 C.3       1 <0>        -0.1735
     16 C12         1.2571    3.0984    0.1724 C.ar      1 <0>        -0.0219
     17 C13         1.2165    1.7458    0.0854 C.ar      1 <0>        -0.0780
     18 C14         0.0095    1.0364    0.1259 C.ar      1 <0>        -0.0810
     19 C15        -1.1870    1.6625    0.2495 C.ar      1 <0>        -0.0654
     20 C16        -1.2248    3.0668    0.3507 C.ar      1 <0>         0.0164
     21 C17         0.0543    3.8186    0.3077 C.ar      1 <0>         0.0395
     22 N2         -0.3377    5.0638    0.4191 N.2       1 <0>        -0.3255
     23 O3         -1.5487    5.0924    0.5090 O.3       1 <0>         0.3771
     24 N3         -2.1160    4.0187    0.4789 N.2       1 <0>        -0.3455
     25 C18         3.1617    3.8245    2.5721 C.2       1 <0>         0.5122
     26 O4          3.7799    3.3764    3.5196 O.2       1 <0>        -0.5060
     27 O5          2.2133    4.7642    2.7688 O.3       1 <0>        -0.3495
     28 C19         1.9875    5.1863    4.1152 C.3       1 <0>         0.0368
     29 H2          4.7276    1.5361    2.8726 H         1 <0>         0.0860
     30 H3          6.1235    1.4552    1.8929 H         1 <0>         0.0728
     31 H4          5.6870    2.9441    2.7651 H         1 <0>         0.0937
     32 H5          3.9959    4.1985   -1.3269 H         1 <0>         0.1502
     33 H6          5.7298    1.7295   -2.5209 H         1 <0>         0.0896
     34 H7          4.1678    2.0389   -3.3165 H         1 <0>         0.1062
     35 H8          5.3029    3.3802   -3.0322 H         1 <0>         0.1027
     36 H9          1.5226    5.0237   -4.3299 H         1 <0>         0.0885
     37 H10        -0.3762    6.6522   -2.5810 H         1 <0>         0.0717
     38 H11        -0.4966    6.4628   -4.3468 H         1 <0>         0.0829
     39 H12        -0.7248    5.0541   -3.2828 H         1 <0>         0.0608
     40 H13         1.8930    7.6642   -2.8443 H         1 <0>         0.0693
     41 H14         3.1608    6.7869   -3.7337 H         1 <0>         0.0602
     42 H15         1.7726    7.4747   -4.6101 H         1 <0>         0.0790
     43 H16         2.1422    1.1993   -0.0179 H         1 <0>         0.1356
     44 H17         0.0319   -0.0409    0.0524 H         1 <0>         0.1467
     45 H18        -2.1020    1.0895    0.2740 H         1 <0>         0.1477
     46 H19         1.2023    5.9419    4.1322 H         1 <0>         0.1005
     47 H20         1.6818    4.3309    4.7177 H         1 <0>         0.0588
     48 H21         2.9065    5.6078    4.5227 H         1 <0>         0.0611
@<TRIPOS>BOND
     1    1    2 1
     2    1   29 1
     3    1   30 1
     4    1   31 1
     5    2    8 1
     6    2    3 2
     7    3    4 1
     8    3   25 1
     9    4    5 1
    10    4    6 1
    11    4   16 1
    12    6   10 1
    13    6   32 1
    14    6    7 1
    15    7    9 1
    16    7    8 2
    17    9   33 1
    18    9   34 1
    19    9   35 1
    20   10   11 2
    21   10   12 1
    22   12   13 1
    23   13   14 1
    24   13   15 1
    25   13   36 1
    26   14   37 1
    27   14   38 1
    28   14   39 1
    29   15   40 1
    30   15   41 1
    31   15   42 1
    32   16   21 ar
    33   16   17 ar
    34   17   18 ar
    35   17   43 1
    36   18   19 ar
    37   18   44 1
    38   19   20 ar
    39   19   45 1
    40   20   24 2
    41   20   21 ar
    42   21   22 2
    43   22   23 1
    44   23   24 1
    45   25   26 2
    46   25   27 1
    47   27   28 1
    48   28   46 1
    49   28   47 1
    50   28   48 1
@<TRIPOS>MOLECULE
ZINC14880004
   70    74     0     0     0
SMALL
USER_CHARGES

@<TRIPOS>ATOM
      1 C1         -0.3555    1.3424   -0.0969 C.3       1 <0>        -0.1763
      2 C2         -0.5346   -0.1769   -0.1211 C.3       1 <0>         0.1789
      3 C3         -0.0469   -0.7160   -1.4398 C.ar      1 <0>        -0.0837
      4 C4         -0.0033    0.0931   -2.5534 C.ar      1 <0>        -0.1382
      5 C5          0.4327   -0.4154   -3.7668 C.ar      1 <0>        -0.1183
      6 C6          0.8267   -1.7350   -3.8738 C.ar      1 <0>        -0.1599
      7 C7          0.7941   -2.5632   -2.7615 C.ar      1 <0>         0.1314
      8 C8          0.3605   -2.0498   -1.5317 C.ar      1 <0>        -0.0770
      9 C9          0.3490   -2.8929   -0.3271 C.2       1 <0>         0.3258
     10 O1          0.4195   -4.2374   -0.4369 O.3       1 <0>        -0.6044
     11 C10         0.2660   -2.2993    0.9186 C.2       1 <0>        -0.4748
     12 C11         0.1848   -3.1108    2.0454 C.2       1 <0>         0.3793
     13 C12         0.1146   -2.5812    3.4468 C.3       1 <0>         0.1172
     14 C13         0.3741   -1.0935    3.4915 C.3       1 <0>        -0.0538
     15 H1          1.4402   -0.9453    3.3198 H         1 <0>         0.0778
     16 C14        -0.3688   -0.3832    2.3610 C.3       1 <0>        -0.0966
     17 C15         0.2580   -0.7983    1.0266 C.3       1 <0>         0.0269
     18 H2          1.2836   -0.4303    0.9956 H         1 <0>         0.0482
     19 C16         0.0398   -0.4568    4.8262 C.3       1 <0>         0.0648
     20 H3          0.0946    0.6275    4.7286 H         1 <0>         0.0502
     21 C17        -1.3398   -0.8416    5.2797 C.2       1 <0>         0.4299
     22 O2         -2.0053   -0.0650    5.9334 O.2       1 <0>        -0.5677
     23 C18        -1.8773   -2.1543    4.9303 C.2       1 <0>        -0.5000
     24 C19        -1.1905   -2.9685    4.0715 C.2       1 <0>         0.3461
     25 O3         -1.7236   -4.1591    3.7594 O.3       1 <0>        -0.5624
     26 C20        -3.1511   -2.6054    5.5129 C.2       1 <0>         0.5796
     27 O4         -3.5466   -3.7372    5.3080 O.2       1 <0>        -0.5435
     28 N1         -3.8795   -1.7643    6.2735 N.am      1 <0>        -0.7432
     29 C21        -5.2026   -2.1707    6.7536 C.3       1 <0>         0.2218
     30 N2         -5.0821   -2.7301    8.1066 N.4       1 <0>        -0.4119
     31 C22        -4.7183   -1.6615    9.0721 C.3       1 <0>        -0.0042
     32 C23        -5.1762   -2.2428   10.4333 C.3       1 <0>        -0.1437
     33 C24        -6.4864   -2.9794   10.0715 C.3       1 <0>        -0.1410
     34 C25        -6.3884   -3.2552    8.5597 C.3       1 <0>        -0.0039
     35 N3          1.0168   -0.9000    5.8296 N.3       1 <0>        -0.5074
     36 C26         2.3591   -0.3908    5.5183 C.3       1 <0>         0.0292
     37 C27         0.6021   -0.4997    7.1808 C.3       1 <0>         0.0300
     38 O5          1.1566   -3.2076    4.1978 O.3       1 <0>        -0.5341
     39 O6          0.1702   -4.3160    1.8855 O.2       1 <0>        -0.4821
     40 O7          1.1791   -3.8601   -2.8635 O.3       1 <0>        -0.4712
     41 O8         -1.9195   -0.4931    0.0339 O.3       1 <0>        -0.5316
     42 H4          0.7009    1.5856   -0.2101 H         1 <0>         0.0639
     43 H5         -0.9207    1.7880   -0.9156 H         1 <0>         0.0537
     44 H6         -0.7193    1.7361    0.8522 H         1 <0>         0.0660
     45 H7         -0.3100    1.1261   -2.4811 H         1 <0>         0.1214
     46 H8          0.4651    0.2254   -4.6355 H         1 <0>         0.1169
     47 H9          1.1603   -2.1227   -4.8250 H         1 <0>         0.1202
     48 H10        -1.4201   -0.6707    2.3768 H         1 <0>         0.0741
     49 H11        -0.2804    0.6960    2.4866 H         1 <0>         0.0509
     50 H12        -3.5278   -0.8900    6.5031 H         1 <0>         0.4187
     51 H13        -5.8629   -1.3038    6.7764 H         1 <0>         0.1268
     52 H14        -5.6162   -2.9249    6.0842 H         1 <0>         0.1373
     53 H15        -3.6418   -1.4907    9.0693 H         1 <0>         0.1310
     54 H16        -5.2556   -0.7403    8.8468 H         1 <0>         0.1278
     55 H17        -4.4359   -2.9414   10.8231 H         1 <0>         0.0933
     56 H18        -5.3682   -1.4434   11.1491 H         1 <0>         0.1087
     57 H19        -6.5581   -3.9168   10.6232 H         1 <0>         0.0981
     58 H20        -7.3477   -2.3467   10.2857 H         1 <0>         0.0974
     59 H21        -7.1960   -2.7438    8.0358 H         1 <0>         0.1260
     60 H22        -6.4422   -4.3278    8.3736 H         1 <0>         0.1273
     61 H23         2.3588    0.6973    5.5825 H         1 <0>         0.0146
     62 H24         3.0762   -0.7967    6.2319 H         1 <0>         0.0640
     63 H25         2.6383   -0.6953    4.5096 H         1 <0>         0.0782
     64 H26        -0.3167   -1.0214    7.4485 H         1 <0>         0.0616
     65 H27         1.3865   -0.7568    7.8927 H         1 <0>         0.0590
     66 H28         0.4290    0.5762    7.2039 H         1 <0>         0.0206
     67 H29         1.0481   -4.1630    4.2999 H         1 <0>         0.3706
     68 H30         2.1205   -4.0053   -2.6968 H         1 <0>         0.3821
     69 H31        -2.4865   -0.1269   -0.6585 H         1 <0>         0.3574
     70 H32        -4.3889   -3.4631    8.1200 H         1 <0>         0.4266
@<TRIPOS>BOND
     1    1    2 1
     2    1   42 1
     3    1   43 1
     4    1   44 1
     5    2   17 1
     6    2    3 1
     7    2   41 1
     8    3    8 ar
     9    3    4 ar
    10    4    5 ar
    11    4   45 1
    12    5    6 ar
    13    5   46 1
    14    6    7 ar
    15    6   47 1
    16    7    8 ar
    17    7   40 1
    18    8    9 1
    19    9   10 1
    20    9   11 2
    21   11   17 1
    22   11   12 1
    23   12   13 1
    24   12   39 2
    25   13   24 1
    26   13   14 1
    27   13   38 1
    28   14   15 1
    29   14   16 1
    30   14   19 1
    31   16   17 1
    32   16   48 1
    33   16   49 1
    34   17   18 1
    35   19   20 1
    36   19   21 1
    37   19   35 1
    38   21   22 2
    39   21   23 1
    40   23   24 2
    41   23   26 1
    42   24   25 1
    43   26   27 2
    44   26   28 am
    45   28   29 1
    46   28   50 1
    47   29   30 1
    48   29   51 1
    49   29   52 1
    50   30   34 1
    51   30   31 1
    52   30   70 1
    53   31   32 1
    54   31   53 1
    55   31   54 1
    56   32   33 1
    57   32   55 1
    58   32   56 1
    59   33   34 1
    60   33   57 1
    61   33   58 1
    62   34   59 1
    63   34   60 1
    64   35   36 1
    65   35   37 1
    66   36   61 1
    67   36   62 1
    68   36   63 1
    69   37   64 1
    70   37   65 1
    71   37   66 1
    72   38   67 1
    73   40   68 1
    74   41   69 1
@<TRIPOS>MOLECULE
ZINC03831198
   65    67     0     0     0
SMALL
USER_CHARGES
methyl 2-(benzyl-methyl-amino)ethyl 2,6-dimethyl-4-(3-nitrophenyl)-1,4-dihydropyridine-3,5-dicarboxylate
@<TRIPOS>ATOM
      1 C1          0.8797    0.2092    4.9374 C.2       1 <0>         0.0371
      2 C2         -0.2948    1.1474    4.8316 C.2       1 <0>        -0.0985
      3 C3         -0.9273    1.2970    3.6521 C.3       1 <0>        -0.0918
      4 C4         -2.1042    2.2188    3.5040 C.3       1 <0>         0.0271
      5 H1         -2.8817    1.7191    2.9262 H         1 <0>         0.1186
      6 C5         -2.6548    2.5991    4.8491 C.3       1 <0>        -0.1157
      7 C6         -1.9445    2.4135    5.9737 C.2       1 <0>         0.1017
      8 N1         -0.6969    1.8535    5.9323 N.2       1 <0>        -0.4310
      9 C7         -2.5307    2.8281    7.2986 C.3       1 <0>        -0.1098
     10 C8         -3.9464    3.1689    4.9319 C.2       1 <0>         0.5021
     11 O1         -4.1102    4.3457    4.6691 O.2       1 <0>        -0.4524
     12 O2         -4.9973    2.4076    5.3026 O.3       1 <0>        -0.3727
     13 C9         -6.2729    3.0488    5.3651 C.3       1 <0>         0.0285
     14 C10        -7.3326    2.0346    5.7998 C.3       1 <0>         0.0019
     15 C11        -7.2152    2.6974    8.1255 C.3       1 <0>        -0.0558
     16 C12        -7.9009    0.4502    7.5403 C.3       1 <0>         0.0486
     17 C13        -7.4233   -0.1298    8.8467 C.ar      1 <0>        -0.1658
     18 C14        -6.4757   -1.1361    8.8508 C.ar      1 <0>        -0.0931
     19 C15        -6.0345   -1.6651   10.0491 C.ar      1 <0>        -0.1126
     20 C16        -6.5476   -1.1941   11.2433 C.ar      1 <0>        -0.0821
     21 C17        -7.4991   -0.1913   11.2389 C.ar      1 <0>        -0.1139
     22 C18        -7.9372    0.3406   10.0406 C.ar      1 <0>        -0.0955
     23 C19        -1.6691    3.4642    2.7757 C.ar      1 <0>        -0.1153
     24 C20        -0.6765    4.2655    3.3087 C.ar      1 <0>        -0.0525
     25 C21        -0.2771    5.4076    2.6405 C.ar      1 <0>        -0.1084
     26 C22        -0.8703    5.7488    1.4392 C.ar      1 <0>        -0.0407
     27 C23        -1.8627    4.9477    0.9064 C.ar      1 <0>        -0.0394
     28 C24        -2.2585    3.8025    1.5722 C.ar      1 <0>        -0.0308
     29 N2         -2.4976    5.3128   -0.3800 N.pl3     1 <0>         0.0249
     30 O3         -2.1454    6.3192   -0.9689 O.2       1 <0>        -0.1469
     31 O4         -3.3721    4.6069   -0.8495 O.3       1 <0>        -0.1544
     32 C25        -0.4828    0.5574    2.5316 C.2       1 <0>         0.4892
     33 O5          0.5269   -0.1174    2.6098 O.2       1 <0>        -0.4992
     34 O6         -1.1781    0.6000    1.3759 O.3       1 <0>        -0.3576
     35 C26        -0.6714   -0.1716    0.2851 C.3       1 <0>         0.0329
     36 H2         -3.1493    1.8221    5.2387 H         1 <0>         0.1248
     37 H3          1.7558    0.7608    5.2788 H         1 <0>         0.1497
     38 H4          0.5702   -0.7947    4.6471 H         1 <0>         0.1542
     39 H5         -0.4978    2.0375    3.1352 H         1 <0>         0.1162
     40 H6         -3.0379    1.9775    7.7537 H         1 <0>         0.0799
     41 H7         -1.7328    3.1706    7.9577 H         1 <0>         0.0985
     42 H8         -3.2452    3.6363    7.1428 H         1 <0>         0.0640
     43 H9         -6.2341    3.8655    6.0859 H         1 <0>         0.0994
     44 H10        -6.5294    3.4437    4.3820 H         1 <0>         0.1210
     45 H11        -8.3178    2.4996    5.7618 H         1 <0>         0.1572
     46 H12        -7.3104    1.1757    5.1290 H         1 <0>         0.1440
     47 H13        -8.2389    3.0688    8.0802 H         1 <0>         0.1289
     48 H14        -7.0019    2.3422    9.1338 H         1 <0>         0.1272
     49 H15        -6.5251    3.5017    7.8702 H         1 <0>         0.1197
     50 H16        -8.9332    0.7840    7.6467 H         1 <0>         0.1396
     51 H17        -7.8435   -0.3110    6.7623 H         1 <0>         0.1365
     52 H18        -6.0776   -1.5066    7.9177 H         1 <0>         0.1311
     53 H19        -5.2908   -2.4483   10.0527 H         1 <0>         0.1365
     54 H20        -6.2048   -1.6092   12.1796 H         1 <0>         0.1364
     55 H21        -7.9000    0.1766   12.1718 H         1 <0>         0.1364
     56 H22        -8.6807    1.1240   10.0373 H         1 <0>         0.1315
     57 H23        -0.2127    3.9987    4.2469 H         1 <0>         0.1417
     58 H24         0.4986    6.0333    3.0566 H         1 <0>         0.1558
     59 H25        -0.5581    6.6411    0.9169 H         1 <0>         0.1612
     60 H26        -3.0310    3.1742    1.1537 H         1 <0>         0.1558
     61 H27        -0.6386   -1.2236    0.5685 H         1 <0>         0.0684
     62 H28         0.3334    0.1688    0.0350 H         1 <0>         0.0647
     63 H29        -1.3226   -0.0487   -0.5804 H         1 <0>         0.1091
     64 N3         -7.0254    1.5830    7.1732 N.4       1 <0>        -0.3986
     65 H30        -6.0469    1.2744    7.2117 H         1 <0>         0.4323
@<TRIPOS>BOND
     1    1   37 1
     2    1   38 1
     3    1    2 2
     4    2    3 1
     5    2    8 1
     6    3    4 1
     7    3   32 1
     8    3   39 1
     9    4    5 1
    10    4    6 1
    11    4   23 1
    12    6   10 1
    13    6    7 1
    14    6   36 1
    15    7    9 1
    16    7    8 2
    17    9   40 1
    18    9   41 1
    19    9   42 1
    20   10   11 2
    21   10   12 1
    22   12   13 1
    23   13   14 1
    24   13   43 1
    25   13   44 1
    26   14   45 1
    27   14   46 1
    28   14   64 1
    29   15   47 1
    30   15   48 1
    31   15   49 1
    32   15   64 1
    33   16   17 1
    34   16   50 1
    35   16   51 1
    36   16   64 1
    37   17   22 ar
    38   17   18 ar
    39   18   19 ar
    40   18   52 1
    41   19   20 ar
    42   19   53 1
    43   20   21 ar
    44   20   54 1
    45   21   22 ar
    46   21   55 1
    47   22   56 1
    48   23   28 ar
    49   23   24 ar
    50   24   25 ar
    51   24   57 1
    52   25   26 ar
    53   25   58 1
    54   26   27 ar
    55   26   59 1
    56   27   28 ar
    57   27   29 1
    58   28   60 1
    59   29   30 2
    60   29   31 1
    61   32   33 2
    62   32   34 1
    63   34   35 1
    64   35   61 1
    65   35   62 1
    66   35   63 1
    67   64   65 1
@<TRIPOS>MOLECULE
ZINC03831198
   65    67     0     0     0
SMALL
USER_CHARGES
methyl 2-(benzyl-methyl-amino)ethyl 2,6-dimethyl-4-(3-nitrophenyl)-1,4-dihydropyridine-3,5-dicarboxylate
@<TRIPOS>ATOM
      1 C1          0.8797    0.2092    4.9374 C.2       1 <0>        -0.4002
      2 C2         -0.2948    1.1474    4.8316 C.2       1 <0>         0.3146
      3 C3         -0.9273    1.2970    3.6521 C.3       1 <0>        -0.1470
      4 C4         -2.0925    2.2329    3.4996 C.3       1 <0>         0.0580
      5 H1         -2.8638    1.7395    2.9083 H         1 <0>         0.1113
      6 C5         -2.6565    2.5963    4.8438 C.3       1 <0>        -0.2717
      7 C6         -1.9569    2.3979    5.9729 C.2       1 <0>         0.1793
      8 N1         -0.7083    1.8397    5.9368 N.2       1 <0>        -0.5153
      9 C7         -2.5564    2.7958    7.2970 C.3       1 <0>        -0.1166
     10 C8         -3.9495    3.1638    4.9210 C.2       1 <0>         0.5415
     11 O1         -4.1122    4.3435    4.6709 O.2       1 <0>        -0.4660
     12 O2         -5.0031    2.3969    5.2722 O.3       1 <0>        -0.3688
     13 C9         -6.2799    3.0360    5.3301 C.3       1 <0>         0.0261
     14 C10        -7.3427    2.0155    5.7422 C.3       1 <0>         0.0028
     15 C11        -7.2485    2.6501    8.0768 C.3       1 <0>        -0.0551
     16 C12        -7.9260    0.4095    7.4577 C.3       1 <0>         0.0485
     17 C13        -7.4604   -0.1858    8.7615 C.ar      1 <0>        -0.1648
     18 C14        -6.5117   -1.1911    8.7627 C.ar      1 <0>        -0.0937
     19 C15        -6.0815   -1.7342    9.9587 C.ar      1 <0>        -0.1133
     20 C16        -6.6068   -1.2783   11.1535 C.ar      1 <0>        -0.0825
     21 C17        -7.5593   -0.2765   11.1520 C.ar      1 <0>        -0.1136
     22 C18        -7.9864    0.2695    9.9561 C.ar      1 <0>        -0.0953
     23 C19        -1.6518    3.4876    2.7907 C.ar      1 <0>        -0.0929
     24 C20        -0.6653    4.2834    3.3430 C.ar      1 <0>        -0.0439
     25 C21        -0.2608    5.4339    2.6926 C.ar      1 <0>        -0.1104
     26 C22        -0.8427    5.7891    1.4898 C.ar      1 <0>        -0.0458
     27 C23        -1.8290    4.9935    0.9377 C.ar      1 <0>        -0.0403
     28 C24        -2.2298    3.8399    1.5857 C.ar      1 <0>        -0.0370
     29 N2         -2.4518    5.3735   -0.3502 N.pl3     1 <0>         0.0263
     30 O3         -2.0951    6.3873   -0.9234 O.2       1 <0>        -0.1505
     31 O4         -3.3209    4.6725   -0.8367 O.3       1 <0>        -0.1589
     32 C25        -0.4828    0.5574    2.5316 C.2       1 <0>         0.4851
     33 O5          0.5269   -0.1174    2.6098 O.2       1 <0>        -0.4663
     34 O6         -1.1781    0.6000    1.3759 O.3       1 <0>        -0.3592
     35 C26        -0.6714   -0.1716    0.2851 C.3       1 <0>         0.0346
     36 H2          0.7575   -0.7027    5.3291 H         1 <0>         0.1821
     37 H3          1.7558    0.7608    5.2788 H         1 <0>         0.1687
     38 H4          0.5702   -0.7947    4.6471 H         1 <0>         0.2182
     39 H5         -1.6742    0.6352    3.5881 H         1 <0>         0.1548
     40 H6         -3.0670    1.9391    7.7368 H         1 <0>         0.0856
     41 H7         -1.7653    3.1310    7.9679 H         1 <0>         0.0981
     42 H8         -3.2703    3.6050    7.1441 H         1 <0>         0.0683
     43 H9         -6.2491    3.8440    6.0611 H         1 <0>         0.0946
     44 H10        -6.5274    3.4426    4.3494 H         1 <0>         0.1168
     45 H11        -8.3280    2.4800    5.7003 H         1 <0>         0.1545
     46 H12        -7.3130    1.1648    5.0613 H         1 <0>         0.1422
     47 H13        -8.2722    3.0210    8.0260 H         1 <0>         0.1285
     48 H14        -7.0447    2.2829    9.0827 H         1 <0>         0.1262
     49 H15        -6.5570    3.4582    7.8380 H         1 <0>         0.1195
     50 H16        -8.9596    0.7409    7.5582 H         1 <0>         0.1394
     51 H17        -7.8601   -0.3422    6.6711 H         1 <0>         0.1359
     52 H18        -6.1041   -1.5498    7.8290 H         1 <0>         0.1302
     53 H19        -5.3370   -2.5166    9.9600 H         1 <0>         0.1358
     54 H20        -6.2725   -1.7043   12.0879 H         1 <0>         0.1363
     55 H21        -7.9696    0.0797   12.0854 H         1 <0>         0.1367
     56 H22        -8.7307    1.0522    9.9551 H         1 <0>         0.1318
     57 H23        -0.2104    4.0057    4.2823 H         1 <0>         0.1356
     58 H24         0.5101    6.0553    3.1237 H         1 <0>         0.1525
     59 H25        -0.5265    6.6879    0.9814 H         1 <0>         0.1580
     60 H26        -2.9975    3.2159    1.1522 H         1 <0>         0.1510
     61 H27        -0.6386   -1.2236    0.5685 H         1 <0>         0.0659
     62 H28         0.3334    0.1688    0.0350 H         1 <0>         0.0693
     63 H29        -1.3226   -0.0487   -0.5804 H         1 <0>         0.1097
     64 N3         -7.0483    1.5476    7.1129 N.4       1 <0>        -0.3977
     65 H30        -6.0699    1.2396    7.1572 H         1 <0>         0.4325
@<TRIPOS>BOND
     1    1   37 1
     2    1   38 1
     3    1    2 2
     4    2    3 1
     5    2    8 1
     6    3    4 1
     7    3   32 1
     8    3   39 1
     9    4    5 1
    10    4    6 1
    11    4   23 1
    12    6   10 1
    13    6   36 1
    14    6    7 1
    15    7    9 1
    16    7    8 2
    17    9   40 1
    18    9   41 1
    19    9   42 1
    20   10   11 2
    21   10   12 1
    22   12   13 1
    23   13   14 1
    24   13   43 1
    25   13   44 1
    26   14   45 1
    27   14   46 1
    28   14   64 1
    29   15   47 1
    30   15   48 1
    31   15   49 1
    32   15   64 1
    33   16   17 1
    34   16   50 1
    35   16   51 1
    36   16   64 1
    37   17   22 ar
    38   17   18 ar
    39   18   19 ar
    40   18   52 1
    41   19   20 ar
    42   19   53 1
    43   20   21 ar
    44   20   54 1
    45   21   22 ar
    46   21   55 1
    47   22   56 1
    48   23   28 ar
    49   23   24 ar
    50   24   25 ar
    51   24   57 1
    52   25   26 ar
    53   25   58 1
    54   26   27 ar
    55   26   59 1
    56   27   28 ar
    57   27   29 1
    58   28   60 1
    59   29   30 2
    60   29   31 1
    61   32   33 2
    62   32   34 1
    63   34   35 1
    64   35   61 1
    65   35   62 1
    66   35   63 1
    67   64   65 1
@<TRIPOS>MOLECULE
ZINC03831198
   65    67     0     0     0
SMALL
USER_CHARGES
methyl 2-(benzyl-methyl-amino)ethyl 2,6-dimethyl-4-(3-nitrophenyl)-1,4-dihydropyridine-3,5-dicarboxylate
@<TRIPOS>ATOM
      1 C1          0.8797    0.2092    4.9374 C.3       1 <0>        -0.0945
      2 C2         -0.2948    1.1474    4.8316 C.2       1 <0>         0.2012
      3 C3         -0.9273    1.2970    3.6521 C.2       1 <0>        -0.2538
      4 C4         -2.1042    2.2188    3.5040 C.3       1 <0>         0.0617
      5 H1         -2.8817    1.7192    2.9262 H         1 <0>         0.1172
      6 C5         -2.6746    2.5663    4.8555 C.3       1 <0>        -0.1329
      7 C6         -1.9637    2.3822    5.9800 C.2       1 <0>         0.2365
      8 N1         -0.7084    1.8397    5.9367 N.2       1 <0>        -0.5037
      9 C7         -2.5578    2.7789    7.3069 C.3       1 <0>        -0.1376
     10 C8         -3.9741    3.1177    4.9402 C.2       1 <0>         0.4994
     11 O1         -4.1536    4.2940    4.6858 O.2       1 <0>        -0.4379
     12 O2         -5.0150    2.3393    5.3033 O.3       1 <0>        -0.3739
     13 C9         -6.2994    2.9624    5.3683 C.3       1 <0>         0.0289
     14 C10        -7.3458    1.9305    5.7936 C.3       1 <0>         0.0013
     15 C11        -7.2415    2.5776    8.1243 C.3       1 <0>        -0.0566
     16 C12        -7.8952    0.3256    7.5213 C.3       1 <0>         0.0484
     17 C13        -7.4119   -0.2574    8.8242 C.ar      1 <0>        -0.1665
     18 C14        -6.4505   -1.2506    8.8227 C.ar      1 <0>        -0.0940
     19 C15        -6.0041   -1.7824   10.0178 C.ar      1 <0>        -0.1127
     20 C16        -6.5257   -1.3273   11.2146 C.ar      1 <0>        -0.0815
     21 C17        -7.4909   -0.3377   11.2158 C.ar      1 <0>        -0.1135
     22 C18        -7.9343    0.1970   10.0207 C.ar      1 <0>        -0.0952
     23 C19        -1.6690    3.4642    2.7757 C.ar      1 <0>        -0.0885
     24 C20        -0.6765    4.2655    3.3087 C.ar      1 <0>        -0.0478
     25 C21        -0.2771    5.4076    2.6405 C.ar      1 <0>        -0.1102
     26 C22        -0.8703    5.7489    1.4392 C.ar      1 <0>        -0.0447
     27 C23        -1.8626    4.9478    0.9064 C.ar      1 <0>        -0.0398
     28 C24        -2.2584    3.8026    1.5722 C.ar      1 <0>        -0.0340
     29 N2         -2.4975    5.3129   -0.3799 N.pl3     1 <0>         0.0257
     30 O3         -2.1453    6.3193   -0.9689 O.2       1 <0>        -0.1497
     31 O4         -3.3720    4.6070   -0.8495 O.3       1 <0>        -0.1569
     32 C25        -0.4727    0.5695    2.5277 C.2       1 <0>         0.5085
     33 O5          0.5446   -0.0940    2.6033 O.2       1 <0>        -0.4949
     34 O6         -1.1668    0.6112    1.3713 O.3       1 <0>        -0.3555
     35 C26        -0.6497   -0.1477    0.2765 C.3       1 <0>         0.0343
     36 H2          1.6111    0.5210    4.3308 H         1 <0>         0.0900
     37 H3          1.2417    0.1947    5.9656 H         1 <0>         0.0762
     38 H4          0.5702   -0.7947    4.6471 H         1 <0>         0.0955
     39 H5         -3.1566    1.7732    5.2279 H         1 <0>         0.1363
     40 H6         -3.0540    1.9180    7.7548 H         1 <0>         0.0997
     41 H7         -1.7658    3.1274    7.9699 H         1 <0>         0.1166
     42 H8         -3.2831    3.5783    7.1558 H         1 <0>         0.0778
     43 H9         -6.2731    3.7742    6.0952 H         1 <0>         0.1018
     44 H10        -6.5597    3.3610    4.3877 H         1 <0>         0.1242
     45 H11        -8.3372    2.3822    5.7572 H         1 <0>         0.1592
     46 H12        -7.3106    1.0770    5.1165 H         1 <0>         0.1450
     47 H13        -8.2702    2.9353    8.0799 H         1 <0>         0.1299
     48 H14        -7.0251    2.2179    9.1303 H         1 <0>         0.1277
     49 H15        -6.5621    3.3932    7.8762 H         1 <0>         0.1197
     50 H16        -8.9322    0.6444    7.6284 H         1 <0>         0.1405
     51 H17        -7.8260   -0.4290    6.7378 H         1 <0>         0.1369
     52 H18        -6.0457   -1.6087    7.8875 H         1 <0>         0.1307
     53 H19        -5.2497   -2.5552   10.0169 H         1 <0>         0.1367
     54 H20        -6.1788   -1.7446   12.1483 H         1 <0>         0.1367
     55 H21        -7.8985    0.0177   12.1507 H         1 <0>         0.1369
     56 H22        -8.6885    0.9701   10.0218 H         1 <0>         0.1318
     57 H23        -0.2127    3.9988    4.2469 H         1 <0>         0.1347
     58 H24         0.4986    6.0333    3.0567 H         1 <0>         0.1531
     59 H25        -0.5580    6.6411    0.9170 H         1 <0>         0.1589
     60 H26        -3.0309    3.1743    1.1537 H         1 <0>         0.1531
     61 H27        -0.6051   -1.2010    0.5535 H         1 <0>         0.0639
     62 H28         0.3515    0.2058    0.0300 H         1 <0>         0.0629
     63 H29        -1.3010   -0.0270   -0.5892 H         1 <0>         0.1052
     64 N3         -7.0348    1.4731    7.1642 N.4       1 <0>        -0.3990
     65 H30        -6.0522    1.1777    7.2022 H         1 <0>         0.4306
@<TRIPOS>BOND
     1    1    2 1
     2    1   36 1
     3    1   37 1
     4    1   38 1
     5    2    8 1
     6    2    3 2
     7    3    4 1
     8    3   32 1
     9    4    5 1
    10    4    6 1
    11    4   23 1
    12    6   10 1
    13    6   39 1
    14    6    7 1
    15    7    9 1
    16    7    8 2
    17    9   40 1
    18    9   41 1
    19    9   42 1
    20   10   11 2
    21   10   12 1
    22   12   13 1
    23   13   14 1
    24   13   43 1
    25   13   44 1
    26   14   45 1
    27   14   46 1
    28   14   64 1
    29   15   47 1
    30   15   48 1
    31   15   49 1
    32   15   64 1
    33   16   17 1
    34   16   50 1
    35   16   51 1
    36   16   64 1
    37   17   22 ar
    38   17   18 ar
    39   18   19 ar
    40   18   52 1
    41   19   20 ar
    42   19   53 1
    43   20   21 ar
    44   20   54 1
    45   21   22 ar
    46   21   55 1
    47   22   56 1
    48   23   28 ar
    49   23   24 ar
    50   24   25 ar
    51   24   57 1
    52   25   26 ar
    53   25   58 1
    54   26   27 ar
    55   26   59 1
    56   27   28 ar
    57   27   29 1
    58   28   60 1
    59   29   30 2
    60   29   31 1
    61   32   33 2
    62   32   34 1
    63   34   35 1
    64   35   61 1
    65   35   62 1
    66   35   63 1
    67   64   65 1
@<TRIPOS>MOLECULE
ZINC14880004
   71    75     0     0     0
SMALL
USER_CHARGES

@<TRIPOS>ATOM
      1 C1          0.4029    2.1522    0.7251 C.3       1 <0>        -0.1803
      2 C2          0.4055    0.6261    0.6167 C.3       1 <0>         0.1819
      3 C3          1.1846    0.2110   -0.6050 C.ar      1 <0>        -0.0840
      4 C4          1.3404    1.0775   -1.6634 C.ar      1 <0>        -0.1376
      5 C5          2.0498    0.6833   -2.7869 C.ar      1 <0>        -0.1072
      6 C6          2.6062   -0.5792   -2.8577 C.ar      1 <0>        -0.1570
      7 C7          2.4630   -1.4636   -1.7990 C.ar      1 <0>         0.1383
      8 C8          1.7499   -1.0664   -0.6595 C.ar      1 <0>        -0.0929
      9 C9          1.6032   -1.9729    0.4890 C.2       1 <0>         0.3465
     10 O1          1.8399   -3.2954    0.3481 O.3       1 <0>        -0.5860
     11 C10         1.2207   -1.4586    1.7159 C.2       1 <0>        -0.4811
     12 C11         0.9929   -2.3383    2.7680 C.2       1 <0>         0.3803
     13 C12         0.5716   -1.8931    4.1431 C.3       1 <0>         0.0605
     14 C13         0.8118   -0.3912    4.2874 C.3       1 <0>        -0.0829
     15 H1          1.8883   -0.2211    4.2710 H         1 <0>         0.1005
     16 C14         0.2026    0.3431    3.0968 C.3       1 <0>        -0.0929
     17 C15         1.0524    0.0291    1.8634 C.3       1 <0>         0.0264
     18 H2          2.0340    0.4823    2.0019 H         1 <0>         0.0529
     19 C16         0.2748    0.1414    5.6012 C.3       1 <0>         0.0361
     20 H3          0.3129    1.2306    5.5831 H         1 <0>         0.1394
     21 C17        -1.1380   -0.2917    5.8544 C.2       1 <0>         0.3193
     22 O2         -1.8836    0.4066    6.7234 O.3       1 <0>        -0.5773
     23 C18        -1.6947   -1.3782    5.2269 C.2       1 <0>        -0.4870
     24 C19        -0.9191   -2.1456    4.2699 C.2       1 <0>         0.4018
     25 O3         -1.4695   -2.9652    3.5637 O.2       1 <0>        -0.4847
     26 C20        -3.0770   -1.7750    5.5389 C.2       1 <0>         0.5891
     27 O4         -3.7639   -1.0733    6.2568 O.2       1 <0>        -0.5335
     28 N1         -3.5819   -2.9159    5.0292 N.am      1 <0>        -0.7431
     29 C21        -4.9912   -3.2536    5.2442 C.3       1 <0>         0.2250
     30 N2         -5.7842   -2.8013    4.0933 N.4       1 <0>        -0.4117
     31 C22        -5.4526   -3.6107    2.8929 C.3       1 <0>        -0.0071
     32 C23        -6.6961   -3.4272    1.9870 C.3       1 <0>        -0.1435
     33 C24        -7.8634   -3.4156    3.0005 C.3       1 <0>        -0.1420
     34 C25        -7.2240   -3.0260    4.3461 C.3       1 <0>        -0.0031
     35 N3          1.1243   -0.3464    6.6960 N.4       1 <0>        -0.3701
     36 C26         2.5203    0.0312    6.4381 C.3       1 <0>        -0.0493
     37 C27         0.6814    0.2510    7.9628 C.3       1 <0>        -0.0501
     38 O5          1.3018   -2.6094    5.1409 O.3       1 <0>        -0.5627
     39 O6          1.1411   -3.5283    2.5672 O.2       1 <0>        -0.4959
     40 O7          3.0079   -2.7043   -1.8663 O.3       1 <0>        -0.4719
     41 O8         -0.9390    0.1546    0.5060 O.3       1 <0>        -0.5373
     42 H4          1.4282    2.5122    0.8104 H         1 <0>         0.0669
     43 H5         -0.0591    2.5789   -0.1652 H         1 <0>         0.0590
     44 H6         -0.1623    2.4528    1.6073 H         1 <0>         0.0658
     45 H7          0.9086    2.0664   -1.6182 H         1 <0>         0.1242
     46 H8          2.1683    1.3682   -3.6135 H         1 <0>         0.1222
     47 H9          3.1540   -0.8780   -3.7391 H         1 <0>         0.1252
     48 H10        -0.8197    0.0008    2.9365 H         1 <0>         0.0845
     49 H11         0.2075    1.4168    3.2842 H         1 <0>         0.0683
     50 H12        -3.0122   -3.5135    4.5200 H         1 <0>         0.4221
     51 H13        -5.0934   -4.3332    5.3540 H         1 <0>         0.1329
     52 H14        -5.3490   -2.7609    6.1482 H         1 <0>         0.1420
     53 H15        -4.5591   -3.2239    2.4028 H         1 <0>         0.1378
     54 H16        -5.3226   -4.6595    3.1600 H         1 <0>         0.1297
     55 H17        -6.6441   -2.4814    1.4477 H         1 <0>         0.0951
     56 H18        -6.7952   -4.2627    1.2940 H         1 <0>         0.1127
     57 H19        -8.6104   -2.6774    2.7087 H         1 <0>         0.1004
     58 H20        -8.3150   -4.4053    3.0687 H         1 <0>         0.1000
     59 H21        -7.3528   -3.8341    5.0662 H         1 <0>         0.1274
     60 H22        -7.6818   -2.1118    4.7239 H         1 <0>         0.1281
     61 H23         3.1326   -0.2294    7.3014 H         1 <0>         0.1179
     62 H24         2.8846   -0.5019    5.5600 H         1 <0>         0.1294
     63 H25         2.5795    1.1052    6.2616 H         1 <0>         0.1150
     64 H26        -0.3544   -0.0292    8.1542 H         1 <0>         0.1358
     65 H27         1.3117   -0.1110    8.7751 H         1 <0>         0.1111
     66 H28         0.7584    1.3364    7.8992 H         1 <0>         0.1146
     67 H29         1.1761   -3.5677    5.1082 H         1 <0>         0.4019
     68 H30         3.9121   -2.7556   -1.5273 H         1 <0>         0.3850
     69 H31        -1.4128    0.4948   -0.2652 H         1 <0>         0.3636
     70 H32         1.0530   -1.3512    6.7548 H         1 <0>         0.4300
     71 H33        -5.6109   -1.8236    3.9136 H         1 <0>         0.4253
@<TRIPOS>BOND
     1    1    2 1
     2    1   42 1
     3    1   43 1
     4    1   44 1
     5    2   17 1
     6    2    3 1
     7    2   41 1
     8    3    8 ar
     9    3    4 ar
    10    4    5 ar
    11    4   45 1
    12    5    6 ar
    13    5   46 1
    14    6    7 ar
    15    6   47 1
    16    7    8 ar
    17    7   40 1
    18    8    9 1
    19    9   10 1
    20    9   11 2
    21   11   17 1
    22   11   12 1
    23   12   13 1
    24   12   39 2
    25   13   14 1
    26   13   38 1
    27   13   24 1
    28   14   15 1
    29   14   16 1
    30   14   19 1
    31   16   17 1
    32   16   48 1
    33   16   49 1
    34   17   18 1
    35   19   20 1
    36   19   35 1
    37   19   21 1
    38   21   23 2
    39   21   22 1
    40   23   26 1
    41   23   24 1
    42   24   25 2
    43   26   27 2
    44   26   28 am
    45   28   29 1
    46   28   50 1
    47   29   30 1
    48   29   51 1
    49   29   52 1
    50   30   34 1
    51   30   31 1
    52   30   71 1
    53   31   32 1
    54   31   53 1
    55   31   54 1
    56   32   33 1
    57   32   55 1
    58   32   56 1
    59   33   34 1
    60   33   57 1
    61   33   58 1
    62   34   59 1
    63   34   60 1
    64   35   36 1
    65   35   37 1
    66   35   70 1
    67   36   61 1
    68   36   62 1
    69   36   63 1
    70   37   64 1
    71   37   65 1
    72   37   66 1
    73   38   67 1
    74   40   68 1
    75   41   69 1
@<TRIPOS>MOLECULE
ZINC12503156
   18    18     0     0     0
SMALL
USER_CHARGES

@<TRIPOS>ATOM
      1 C1          0.0226    1.4611    0.0063 C.3       1 <0>         0.0579
      2 N1          0.0216   -0.0039    0.0002 N.pl3     1 <0>        -0.4037
      3 C2         -0.0765   -0.6619   -1.1678 C.2       1 <0>         0.1181
      4 C3         -0.0797   -2.0223   -1.2051 C.2       1 <0>        -0.1906
      5 C4          0.0198   -2.7517   -0.0207 C.2       1 <0>        -0.0140
      6 C5          0.1208   -2.0735    1.1817 C.2       1 <0>        -0.1673
      7 C6          0.1256   -0.6799    1.1763 C.2       1 <0>         0.2838
      8 C7          0.2376    0.0574    2.4379 C.2       1 <0>        -0.2811
      9 N2          0.1216    1.3527    2.4466 N.2       1 <0>        -0.2991
     10 O1          0.2147    1.9655    3.4951 O.2       1 <0>        -0.1898
     11 H1          0.9183    1.8217    0.5120 H         1 <0>         0.1080
     12 H2          0.0117    1.8287   -1.0198 H         1 <0>         0.0901
     13 H3         -0.8615    1.8228    0.5313 H         1 <0>         0.1080
     14 H4         -0.1543   -0.1034   -2.0889 H         1 <0>         0.1824
     15 H5         -0.1596   -2.5366   -2.1514 H         1 <0>         0.1618
     16 H6          0.0177   -3.8315   -0.0413 H         1 <0>         0.1544
     17 H7          0.1989   -2.6172    2.1115 H         1 <0>         0.1636
     18 H8          0.4166   -0.4749    3.3604 H         1 <0>         0.1176
@<TRIPOS>BOND
     1    1    2 1
     2    1   11 1
     3    1   12 1
     4    1   13 1
     5    2    7 1
     6    2    3 1
     7    3    4 2
     8    3   14 1
     9    4    5 1
    10    4   15 1
    11    5    6 2
    12    5   16 1
    13    6    7 1
    14    6   17 1
    15    7    8 2
    16    8    9 1
    17    8   18 1
    18    9   10 2
@<TRIPOS>MOLECULE
ZINC02019839
   53    55     0     0     0
SMALL
USER_CHARGES
7-[3-[2-(3,5-dihydroxyphenyl)-2-hydroxy-ethyl]aminopropyl]-1,3-dimethyl-purine-2,6-dione
@<TRIPOS>ATOM
      1 C1          3.5943   -0.8205   -0.0372 C.3       1 <0>         0.0502
      2 N1          2.3510   -0.0457   -0.0206 N.am      1 <0>        -0.5101
      3 C2          2.3989    1.3389   -0.0137 C.2       1 <0>         0.3607
      4 C3          1.2061    2.0510    0.0016 C.2       1 <0>        -0.0919
      5 C4         -0.0162    1.3451    0.0094 C.2       1 <0>         0.5937
      6 O1         -1.0751    1.9469    0.0177 O.2       1 <0>        -0.4791
      7 N2          0.0021   -0.0041    0.0020 N.am      1 <0>        -0.5390
      8 C5          1.1636   -0.6804   -0.0127 C.2       1 <0>         0.7039
      9 O2          1.1414   -1.8962   -0.0186 O.2       1 <0>        -0.4698
     10 C6         -1.2630   -0.7429    0.0096 C.3       1 <0>         0.0733
     11 N3          1.5537    3.3870    0.0054 N.pl3     1 <0>        -0.3610
     12 C7          2.8998    3.4436   -0.0071 C.cat     1 <0>         0.3528
     13 C8          0.6336    4.5269    0.0199 C.3       1 <0>         0.0972
     14 C9          0.2287    4.8371    1.4624 C.3       1 <0>        -0.1748
     15 C10        -0.7323    6.0276    1.4775 C.3       1 <0>        -0.0008
     16 C11        -2.0457    7.4658    2.9160 C.3       1 <0>        -0.0397
     17 C12        -2.4271    7.7452    4.3711 C.3       1 <0>         0.1380
     18 H1         -2.8293    6.8379    4.8219 H         1 <0>         0.1343
     19 C13        -3.4686    8.8334    4.4174 C.ar      1 <0>        -0.1128
     20 C14        -3.0886   10.1570    4.3040 C.ar      1 <0>        -0.1485
     21 C15        -4.0464   11.1606    4.3406 C.ar      1 <0>         0.1408
     22 C16        -5.3841   10.8349    4.5029 C.ar      1 <0>        -0.1550
     23 C17        -5.7622    9.5065    4.6221 C.ar      1 <0>         0.1408
     24 C18        -4.8013    8.5062    4.5787 C.ar      1 <0>        -0.1407
     25 O3         -7.0728    9.1840    4.7808 O.3       1 <0>        -0.4928
     26 O4         -3.6727   12.4619    4.2231 O.3       1 <0>        -0.4935
     27 O5         -1.2684    8.1636    5.0953 O.3       1 <0>        -0.5465
     28 H2          3.3591   -1.8848   -0.0410 H         1 <0>         0.1324
     29 H3          4.1657   -0.5715   -0.9314 H         1 <0>         0.0969
     30 H4          4.1830   -0.5816    0.8485 H         1 <0>         0.0963
     31 H5         -1.5861   -0.9206   -1.0161 H         1 <0>         0.0935
     32 H6         -1.1232   -1.6974    0.5171 H         1 <0>         0.1099
     33 H7         -2.0208   -0.1604    0.5336 H         1 <0>         0.1060
     34 H8          3.4839    4.3521   -0.0078 H         1 <0>         0.2844
     35 H9          1.1261    5.3969   -0.4144 H         1 <0>         0.1424
     36 H10        -0.2550    4.2839   -0.5627 H         1 <0>         0.1424
     37 H11        -0.2638    3.9671    1.8966 H         1 <0>         0.1070
     38 H12         1.1173    5.0801    2.0449 H         1 <0>         0.1057
     39 H13        -0.2398    6.8976    1.0432 H         1 <0>         0.1427
     40 H14        -1.6209    5.7847    0.8949 H         1 <0>         0.1441
     41 H15        -1.5623    8.3458    2.4917 H         1 <0>         0.1413
     42 H16        -2.9434    7.2328    2.3434 H         1 <0>         0.1492
     43 H17        -2.0458   10.4105    4.1824 H         1 <0>         0.1313
     44 H18        -6.1304   11.6148    4.5367 H         1 <0>         0.1470
     45 H19        -5.0954    7.4711    4.6715 H         1 <0>         0.1374
     46 H20        -7.3587    9.1425    5.7036 H         1 <0>         0.4051
     47 H21        -3.4709   12.8908    5.0659 H         1 <0>         0.4046
     48 H22        -0.8570    8.9672    4.7488 H         1 <0>         0.3906
     49 N4         -1.1176    6.3201    2.8710 N.4       1 <0>        -0.5155
     50 H23        -0.2763    6.5442    3.4151 H         1 <0>         0.4381
     51 H24        -1.5773    5.4958    3.2754 H         1 <0>         0.4370
     52 N5          3.3946    2.2308   -0.0184 N.pl3     1 <0>        -0.4912
     53 H25         4.3951    2.0003   -0.0293 H         1 <0>         0.4919
@<TRIPOS>BOND
     1    1    2 1
     2    1   28 1
     3    1   29 1
     4    1   30 1
     5    2    8 am
     6    2    3 1
     7    3    4 2
     8    3   52 1
     9    4    5 1
    10    4   11 1
    11    5    6 2
    12    5    7 am
    13    7    8 am
    14    7   10 1
    15    8    9 2
    16   10   31 1
    17   10   32 1
    18   10   33 1
    19   11   12 1
    20   11   13 1
    21   12   34 1
    22   12   52 2
    23   13   14 1
    24   13   35 1
    25   13   36 1
    26   14   15 1
    27   14   37 1
    28   14   38 1
    29   15   39 1
    30   15   40 1
    31   15   49 1
    32   16   17 1
    33   16   41 1
    34   16   42 1
    35   16   49 1
    36   17   18 1
    37   17   19 1
    38   17   27 1
    39   19   24 ar
    40   19   20 ar
    41   20   21 ar
    42   20   43 1
    43   21   22 ar
    44   21   26 1
    45   22   23 ar
    46   22   44 1
    47   23   24 ar
    48   23   25 1
    49   24   45 1
    50   25   46 1
    51   26   47 1
    52   27   48 1
    53   49   50 1
    54   49   51 1
    55   52   53 1
@<TRIPOS>MOLECULE
ZINC06507068
   25    25     0     0     0
SMALL
USER_CHARGES

@<TRIPOS>ATOM
      1 C1         -0.0178    1.4648    0.0101 C.3       1 <0>         0.0183
      2 N1          0.0021   -0.0041    0.0020 N.3       1 <0>        -0.5348
      3 C2          0.7062   -0.5275    1.1802 C.3       1 <0>         0.1621
      4 C3          2.1290   -0.1576    1.1061 C.1       1 <0>        -0.1853
      5 C4          3.2638    0.1375    1.0469 C.1       1 <0>        -0.1910
      6 C5         -1.3597   -0.5486   -0.0825 C.3       1 <0>         0.0928
      7 C6         -1.9618   -0.1908   -1.4168 C.ar      1 <0>        -0.0809
      8 C7         -2.6672    0.9890   -1.5628 C.ar      1 <0>        -0.1140
      9 C8         -3.2196    1.3171   -2.7868 C.ar      1 <0>        -0.1215
     10 C9         -3.0661    0.4657   -3.8649 C.ar      1 <0>        -0.1187
     11 C10        -2.3599   -0.7137   -3.7192 C.ar      1 <0>        -0.1210
     12 C11        -1.8039   -1.0398   -2.4963 C.ar      1 <0>        -0.0976
     13 H1          1.0047    1.8421    0.0024 H         1 <0>         0.0696
     14 H2         -0.5450    1.8259   -0.8730 H         1 <0>         0.0759
     15 H3         -0.5280    1.8163    0.9069 H         1 <0>         0.0282
     16 H4          0.2673   -0.1040    2.0837 H         1 <0>         0.0595
     17 H5          0.6139   -1.6133    1.2060 H         1 <0>         0.0988
     18 H6          4.2787    0.4014    0.9940 H         1 <0>         0.2181
     19 H7         -1.3244   -1.6331    0.0212 H         1 <0>         0.0870
     20 H8         -1.9698   -0.1268    0.7163 H         1 <0>         0.0474
     21 H9         -2.7872    1.6542   -0.7205 H         1 <0>         0.1185
     22 H10        -3.7713    2.2385   -2.9006 H         1 <0>         0.1217
     23 H11        -3.4982    0.7217   -4.8210 H         1 <0>         0.1215
     24 H12        -2.2403   -1.3791   -4.5614 H         1 <0>         0.1225
     25 H13        -1.2490   -1.9594   -2.3834 H         1 <0>         0.1228
@<TRIPOS>BOND
     1    1    2 1
     2    1   13 1
     3    1   14 1
     4    1   15 1
     5    2    3 1
     6    2    6 1
     7    3    4 1
     8    3   16 1
     9    3   17 1
    10    4    5 3
    11    5   18 1
    12    6    7 1
    13    6   19 1
    14    6   20 1
    15    7   12 ar
    16    7    8 ar
    17    8    9 ar
    18    8   21 1
    19    9   10 ar
    20    9   22 1
    21   10   11 ar
    22   10   23 1
    23   11   12 ar
    24   11   24 1
    25   12   25 1
@<TRIPOS>MOLECULE
ZINC11726211
   46    49     0     0     0
SMALL
USER_CHARGES
11-(1-methyl-4-piperidylidene)-5,6-dihydroimidazo[2,3-b][3]benzazepine-3-carbaldehyde
@<TRIPOS>ATOM
      1 C1         -0.1618    0.9094    2.4177 C.3       1 <0>        -0.0454
      2 C2         -0.0127    1.0858    0.0080 C.3       1 <0>         0.0053
      3 C3         -0.7547    1.5939   -1.2335 C.3       1 <0>        -0.1391
      4 C4         -0.8943    3.0976   -1.1200 C.2       1 <0>        -0.0729
      5 C5         -0.5624    3.9038   -2.1405 C.2       1 <0>        -0.0174
      6 C6         -0.7024    5.3809   -2.0214 C.ar      1 <0>        -0.0832
      7 C7         -1.9343    5.9528   -1.7210 C.ar      1 <0>        -0.0929
      8 C8         -2.0325    7.3271   -1.6112 C.ar      1 <0>        -0.1019
      9 C9         -0.9099    8.1135   -1.7998 C.ar      1 <0>        -0.0852
     10 C10         0.3105    7.5390   -2.1002 C.ar      1 <0>        -0.0992
     11 C11         0.4193    6.1603   -2.2149 C.ar      1 <0>        -0.0810
     12 C12         1.7454    5.5559   -2.5536 C.3       1 <0>        -0.1029
     13 C13         1.8151    5.0141   -3.9624 C.3       1 <0>         0.0949
     14 N1          0.9399    3.8596   -4.1762 N.pl3     1 <0>        -0.3506
     15 C14        -0.0424    3.3455   -3.4100 C.cat     1 <0>         0.3507
     16 C15         0.1107    2.0286   -5.1276 C.2       1 <0>         0.1104
     17 C16         1.0349    3.0407   -5.3010 C.2       1 <0>        -0.0617
     18 C17         1.9048    3.2122   -6.4008 C.2       1 <0>         0.3943
     19 O1          2.6732    4.1524   -6.4265 O.2       1 <0>        -0.4169
     20 C18        -1.4212    3.6611    0.1830 C.3       1 <0>        -0.1164
     21 C19        -0.6368    3.0217    1.3345 C.3       1 <0>        -0.0003
     22 H1          0.9004    1.1367    2.5085 H         1 <0>         0.1269
     23 H2         -0.6888    1.2784    3.2975 H         1 <0>         0.1298
     24 H3         -0.2971   -0.1693    2.3389 H         1 <0>         0.1277
     25 H4          0.0021   -0.0041    0.0020 H         1 <0>         0.1449
     26 H5          1.0098    1.4633    0.0003 H         1 <0>         0.1357
     27 H6         -0.1864    1.3440   -2.1294 H         1 <0>         0.1054
     28 H7         -1.7425    1.1359   -1.2845 H         1 <0>         0.1277
     29 H8         -2.8045    5.3300   -1.5754 H         1 <0>         0.1346
     30 H9         -2.9822    7.7856   -1.3786 H         1 <0>         0.1424
     31 H10        -0.9882    9.1870   -1.7118 H         1 <0>         0.1410
     32 H11         1.1799    8.1631   -2.2454 H         1 <0>         0.1408
     33 H12         2.5171    6.3162   -2.4329 H         1 <0>         0.1294
     34 H13         1.9463    4.7415   -1.8575 H         1 <0>         0.0870
     35 H14         1.5293    5.8044   -4.6566 H         1 <0>         0.1299
     36 H15         2.8428    4.7192   -4.1743 H         1 <0>         0.1416
     37 H16        -0.0693    1.2084   -5.8068 H         1 <0>         0.2467
     38 H17         1.8866    2.5073   -7.2188 H         1 <0>         0.1633
     39 H18        -1.2819    4.7421    0.1991 H         1 <0>         0.1352
     40 H19        -2.4805    3.4249    0.2841 H         1 <0>         0.1219
     41 H20         0.4032    3.3449    1.2895 H         1 <0>         0.1360
     42 H21        -1.0721    3.3286    2.2855 H         1 <0>         0.1460
     43 N2         -0.7316    1.5500    1.2152 N.4       1 <0>        -0.3984
     44 H22        -1.7207    1.2866    1.1345 H         1 <0>         0.4330
     45 N3         -0.5166    2.2420   -3.9791 N.pl3     1 <0>        -0.4962
     46 H23        -1.2559    1.6458   -3.5889 H         1 <0>         0.4791
@<TRIPOS>BOND
     1    1   22 1
     2    1   23 1
     3    1   24 1
     4    1   43 1
     5    2    3 1
     6    2   25 1
     7    2   26 1
     8    2   43 1
     9    3    4 1
    10    3   27 1
    11    3   28 1
    12    4    5 2
    13    4   20 1
    14    5   15 1
    15    5    6 1
    16    6   11 ar
    17    6    7 ar
    18    7    8 ar
    19    7   29 1
    20    8    9 ar
    21    8   30 1
    22    9   10 ar
    23    9   31 1
    24   10   11 ar
    25   10   32 1
    26   11   12 1
    27   12   13 1
    28   12   33 1
    29   12   34 1
    30   13   14 1
    31   13   35 1
    32   13   36 1
    33   14   17 1
    34   14   15 1
    35   15   45 2
    36   16   17 2
    37   16   37 1
    38   16   45 1
    39   17   18 1
    40   18   19 2
    41   18   38 1
    42   20   21 1
    43   20   39 1
    44   20   40 1
    45   21   41 1
    46   21   42 1
    47   21   43 1
    48   43   44 1
    49   45   46 1
@<TRIPOS>MOLECULE
ZINC18115268
   33    33     0     0     0
SMALL
USER_CHARGES

@<TRIPOS>ATOM
      1 C1         -0.0184    1.5028    0.0103 C.3       1 <0>        -0.0728
      2 C2          0.0021   -0.0041    0.0020 C.2       1 <0>         0.0390
      3 C3          0.0078   -0.7894   -1.0919 C.2       1 <0>        -0.0274
      4 N1          0.0283   -2.0846   -0.6496 N.pl3     1 <0>        -0.5622
      5 H1          0.0368   -2.8816   -1.2024 H         1 <0>         0.4215
      6 C4          0.0343   -2.0456    0.7003 C.2       1 <0>         0.2055
      7 N2          0.0236   -0.7980    1.0829 N.2       1 <0>        -0.4914
      8 C5         -0.0061   -0.3305   -2.5273 C.3       1 <0>        -0.0061
      9 S1          1.6984   -0.1218   -3.1119 S.3       1 <0>        -0.2224
     10 C6          1.5088    0.4256   -4.8309 C.3       1 <0>        -0.1131
     11 C7          2.8900    0.6421   -5.4525 C.3       1 <0>         0.1232
     12 N3          2.7369    1.0841   -6.8408 N.pl3     1 <0>        -0.7460
     13 C8          3.8420    1.3415   -7.6015 C.2       1 <0>         0.6876
     14 N4          3.7038    1.7403   -8.8538 N.2       1 <0>        -0.5720
     15 C9          2.4661    1.8938   -9.3833 C.1       1 <0>         0.3811
     16 N5          1.4284    2.0226   -9.8273 N.1       1 <0>        -0.4749
     17 N6          5.0898    1.1867   -7.0676 N.pl3     1 <0>        -0.7017
     18 C10         6.2749    1.4628   -7.8834 C.3       1 <0>         0.1002
     19 H2          1.0042    1.8801    0.0026 H         1 <0>         0.0748
     20 H3         -0.5455    1.8639   -0.8728 H         1 <0>         0.0672
     21 H4         -0.5286    1.8543    0.9071 H         1 <0>         0.0735
     22 H5          0.0496   -2.9046    1.3548 H         1 <0>         0.2133
     23 H6         -0.5124   -1.0749   -3.1419 H         1 <0>         0.0904
     24 H7         -0.5340    0.6203   -2.5997 H         1 <0>         0.1075
     25 H8          0.9707   -0.3347   -5.3971 H         1 <0>         0.0915
     26 H9          0.9490    1.3606   -4.8549 H         1 <0>         0.0942
     27 H10         3.4281    1.4023   -4.8864 H         1 <0>         0.0838
     28 H11         3.4498   -0.2929   -5.4286 H         1 <0>         0.0820
     29 H12         1.8508    1.1940   -7.2199 H         1 <0>         0.4170
     30 H13         5.1912    0.8940   -6.1484 H         1 <0>         0.4150
     31 H14         6.2560    2.5020   -8.2117 H         1 <0>         0.0706
     32 H15         7.1728    1.2850   -7.2916 H         1 <0>         0.0810
     33 H16         6.2777    0.8068   -8.7539 H         1 <0>         0.0703
@<TRIPOS>BOND
     1    1    2 1
     2    1   19 1
     3    1   20 1
     4    1   21 1
     5    2    7 1
     6    2    3 2
     7    3    4 1
     8    3    8 1
     9    4    5 1
    10    4    6 1
    11    6    7 2
    12    6   22 1
    13    8    9 1
    14    8   23 1
    15    8   24 1
    16    9   10 1
    17   10   11 1
    18   10   25 1
    19   10   26 1
    20   11   12 1
    21   11   27 1
    22   11   28 1
    23   12   13 1
    24   12   29 1
    25   13   14 2
    26   13   17 1
    27   14   15 1
    28   15   16 3
    29   17   18 1
    30   17   30 1
    31   18   31 1
    32   18   32 1
    33   18   33 1
@<TRIPOS>MOLECULE
ZINC18115268
   33    33     0     0     0
SMALL
USER_CHARGES

@<TRIPOS>ATOM
      1 C1         -0.2313    1.5566   -0.1028 C.3       1 <0>        -0.0729
      2 C2         -0.2662    0.0503   -0.1299 C.2       1 <0>         0.0391
      3 C3         -0.2574   -0.7218   -1.2333 C.2       1 <0>        -0.0280
      4 N1         -0.2977   -2.0220   -0.8072 N.pl3     1 <0>        -0.5622
      5 H1         -0.3024   -2.8121   -1.3698 H         1 <0>         0.4216
      6 C4         -0.3298   -1.9991    0.5427 C.2       1 <0>         0.2056
      7 N2         -0.3057   -0.7566    0.9408 N.2       1 <0>        -0.4917
      8 C5         -0.2122   -0.2458   -2.6624 C.3       1 <0>        -0.0052
      9 S1          1.5152   -0.0938   -3.1949 S.3       1 <0>        -0.2237
     10 C6          1.3964    0.4805   -4.9115 C.3       1 <0>        -0.1124
     11 C7          2.8023    0.6527   -5.4901 C.3       1 <0>         0.1312
     12 N3          2.7063    1.1165   -6.8764 N.pl3     1 <0>        -0.6991
     13 C8          3.8420    1.3415   -7.6015 C.2       1 <0>         0.6905
     14 N4          3.7554    1.7599   -8.8520 N.2       1 <0>        -0.5816
     15 C9          4.8756    2.1151   -9.5267 C.1       1 <0>         0.3975
     16 N5          5.8147    2.4129  -10.0922 N.1       1 <0>        -0.4856
     17 N6          5.0671    1.1341   -7.0339 N.pl3     1 <0>        -0.7461
     18 C10         6.2847    1.4646   -7.7784 C.3       1 <0>         0.0697
     19 H2          0.8043    1.8956   -0.0762 H         1 <0>         0.0748
     20 H3         -0.7187    1.9475   -0.9960 H         1 <0>         0.0676
     21 H4         -0.7542    1.9163    0.7833 H         1 <0>         0.0733
     22 H5         -0.3654   -2.8657    1.1862 H         1 <0>         0.2131
     23 H6         -0.7274   -0.9635   -3.3009 H         1 <0>         0.0909
     24 H7         -0.7024    0.7249   -2.7377 H         1 <0>         0.1080
     25 H8          0.8474   -0.2524   -5.5026 H         1 <0>         0.0947
     26 H9          0.8724    1.4359   -4.9395 H         1 <0>         0.0976
     27 H10         3.3512    1.3857   -4.8989 H         1 <0>         0.0839
     28 H11         3.3262   -0.3027   -5.4620 H         1 <0>         0.0811
     29 H12         1.8364    1.2638   -7.2794 H         1 <0>         0.4280
     30 H13         5.1307    0.7679   -6.1379 H         1 <0>         0.4035
     31 H14         6.2842    2.5269   -8.0226 H         1 <0>         0.0744
     32 H15         7.1578    1.2325   -7.1685 H         1 <0>         0.0877
     33 H16         6.3182    0.8804   -8.6980 H         1 <0>         0.0744
@<TRIPOS>BOND
     1    1    2 1
     2    1   19 1
     3    1   20 1
     4    1   21 1
     5    2    7 1
     6    2    3 2
     7    3    4 1
     8    3    8 1
     9    4    5 1
    10    4    6 1
    11    6    7 2
    12    6   22 1
    13    8    9 1
    14    8   23 1
    15    8   24 1
    16    9   10 1
    17   10   11 1
    18   10   25 1
    19   10   26 1
    20   11   12 1
    21   11   27 1
    22   11   28 1
    23   12   13 1
    24   12   29 1
    25   13   14 2
    26   13   17 1
    27   14   15 1
    28   15   16 3
    29   17   18 1
    30   17   30 1
    31   18   31 1
    32   18   32 1
    33   18   33 1
@<TRIPOS>MOLECULE
ZINC00601265
   63    65     0     0     0
SMALL
USER_CHARGES

@<TRIPOS>ATOM
      1 C1          2.1844    2.5720   -0.5351 C.3       1 <0>        -0.0963
      2 C2          1.8111    1.1121   -0.5586 C.2       1 <0>         0.2822
      3 C3          0.5003    0.7714   -0.7317 C.2       1 <0>        -0.3777
      4 C4          0.1555   -0.7065   -0.7514 C.3       1 <0>         0.1288
      5 H1         -0.3264   -0.9311   -1.7030 H         1 <0>         0.0459
      6 C5          1.3231   -1.6611   -0.5740 C.2       1 <0>        -0.3946
      7 C6          1.1417   -3.0267   -0.5739 C.2       1 <0>         0.4728
      8 O1         -0.1032   -3.5411   -0.6154 O.3       1 <0>        -0.6448
      9 O2          2.2091   -3.8482   -0.5325 O.3       1 <0>        -0.3142
     10 C7          1.9543   -5.2495   -0.6494 C.3       1 <0>         0.0740
     11 C8          3.2618   -6.0226   -0.4659 C.3       1 <0>         0.0568
     12 N1          4.1676   -5.7250   -1.5834 N.3       1 <0>        -0.5256
     13 C9          3.7300   -6.4030   -2.8108 C.3       1 <0>         0.0173
     14 C10         5.5522   -6.0840   -1.2487 C.3       1 <0>         0.0938
     15 C11         6.4806   -5.5452   -2.3064 C.ar      1 <0>        -0.0753
     16 C12         6.7875   -6.3141   -3.4134 C.ar      1 <0>        -0.1161
     17 C13         7.6391   -5.8198   -4.3837 C.ar      1 <0>        -0.1247
     18 C14         8.1834   -4.5565   -4.2471 C.ar      1 <0>        -0.1224
     19 C15         7.8757   -3.7872   -3.1406 C.ar      1 <0>        -0.1199
     20 C16         7.0208   -4.2798   -2.1725 C.ar      1 <0>        -0.0931
     21 C17         2.5884   -1.0942   -0.4114 C.2       1 <0>         0.2970
     22 N2          2.7674    0.2071   -0.4161 N.2       1 <0>        -0.6442
     23 C18         3.7804   -1.9985   -0.2315 C.3       1 <0>        -0.1018
     24 C19        -0.8373   -0.9732    0.3505 C.ar      1 <0>        -0.0218
     25 C20        -0.5016   -0.7021    1.6640 C.ar      1 <0>        -0.0597
     26 C21        -1.4122   -0.9467    2.6746 C.ar      1 <0>        -0.1294
     27 C22        -2.6589   -1.4620    2.3720 C.ar      1 <0>        -0.0809
     28 C23        -2.9949   -1.7322    1.0588 C.ar      1 <0>        -0.0554
     29 C24        -2.0855   -1.4835    0.0474 C.ar      1 <0>        -0.0069
     30 N3         -4.3294   -2.2845    0.7349 N.pl3     1 <0>         0.0445
     31 O3         -5.1256   -2.4992    1.6190 O.2       1 <0>        -0.1855
     32 O4         -4.6233   -2.5208   -0.4138 O.3       1 <0>        -0.1687
     33 C25        -0.4937    1.7537   -0.8854 C.2       1 <0>         0.5216
     34 O5         -0.1922    2.9335   -0.8656 O.2       1 <0>        -0.5579
     35 O6         -1.7831    1.3889   -1.0551 O.3       1 <0>        -0.3600
     36 C26        -2.7402    2.4394   -1.2050 C.3       1 <0>         0.0413
     37 H2          3.2609    2.6695   -0.3945 H         1 <0>         0.0545
     38 H3          1.8978    3.0355   -1.4791 H         1 <0>         0.0763
     39 H4          1.6644    3.0668    0.2852 H         1 <0>         0.0753
     40 H5          1.2414   -5.5543    0.1167 H         1 <0>         0.0643
     41 H6          1.5414   -5.4626   -1.6354 H         1 <0>         0.0590
     42 H7          3.7313   -5.7251    0.4717 H         1 <0>         0.0834
     43 H8          3.0515   -7.0919   -0.4436 H         1 <0>         0.0518
     44 H9          2.7493   -6.0278   -3.1033 H         1 <0>         0.0702
     45 H10         4.4464   -6.2080   -3.6088 H         1 <0>         0.0728
     46 H11         3.6695   -7.4764   -2.6311 H         1 <0>         0.0227
     47 H12         5.8152   -5.6551   -0.2817 H         1 <0>         0.0845
     48 H13         5.6451   -7.1690   -1.2022 H         1 <0>         0.0392
     49 H14         6.3623   -7.3011   -3.5201 H         1 <0>         0.1159
     50 H15         7.8795   -6.4208   -5.2482 H         1 <0>         0.1178
     51 H16         8.8493   -4.1706   -5.0048 H         1 <0>         0.1181
     52 H17         8.3012   -2.8003   -3.0338 H         1 <0>         0.1216
     53 H18         6.7774   -3.6773   -1.3098 H         1 <0>         0.1257
     54 H19         3.9161   -2.6034   -1.1280 H         1 <0>         0.0892
     55 H20         4.6721   -1.3950   -0.0620 H         1 <0>         0.0588
     56 H21         3.6152   -2.6513    0.6256 H         1 <0>         0.0734
     57 H22         0.4722   -0.2995    1.9004 H         1 <0>         0.1272
     58 H23        -1.1497   -0.7355    3.7007 H         1 <0>         0.1337
     59 H24        -3.3702   -1.6538    3.1617 H         1 <0>         0.1390
     60 H25        -2.3494   -1.6912   -0.9791 H         1 <0>         0.1407
     61 H26        -3.7338    2.0101   -1.3331 H         1 <0>         0.0861
     62 H27        -2.7289    3.0708   -0.3165 H         1 <0>         0.0486
     63 H28        -2.4878    3.0387   -2.0798 H         1 <0>         0.0509
@<TRIPOS>BOND
     1    1    2 1
     2    1   37 1
     3    1   38 1
     4    1   39 1
     5    2   22 1
     6    2    3 2
     7    3    4 1
     8    3   33 1
     9    4    5 1
    10    4    6 1
    11    4   24 1
    12    6    7 2
    13    6   21 1
    14    7    8 1
    15    7    9 1
    16    9   10 1
    17   10   11 1
    18   10   40 1
    19   10   41 1
    20   11   12 1
    21   11   42 1
    22   11   43 1
    23   12   13 1
    24   12   14 1
    25   13   44 1
    26   13   45 1
    27   13   46 1
    28   14   15 1
    29   14   47 1
    30   14   48 1
    31   15   20 ar
    32   15   16 ar
    33   16   17 ar
    34   16   49 1
    35   17   18 ar
    36   17   50 1
    37   18   19 ar
    38   18   51 1
    39   19   20 ar
    40   19   52 1
    41   20   53 1
    42   21   22 2
    43   21   23 1
    44   23   54 1
    45   23   55 1
    46   23   56 1
    47   24   29 ar
    48   24   25 ar
    49   25   26 ar
    50   25   57 1
    51   26   27 ar
    52   26   58 1
    53   27   28 ar
    54   27   59 1
    55   28   29 ar
    56   28   30 1
    57   29   60 1
    58   30   31 2
    59   30   32 1
    60   33   34 2
    61   33   35 1
    62   35   36 1
    63   36   61 1
    64   36   62 1
    65   36   63 1
@<TRIPOS>MOLECULE
ZINC19796087
   63    65     0     0     0
SMALL
USER_CHARGES

@<TRIPOS>ATOM
      1 C1          1.9250    2.2404   -0.3129 C.3       1 <0>        -0.0962
      2 C2          1.5956    0.7700   -0.3363 C.2       1 <0>         0.2823
      3 C3          0.2875    0.3908   -0.4338 C.2       1 <0>        -0.3776
      4 C4         -0.0127   -1.0968   -0.4556 C.3       1 <0>         0.1287
      5 H1         -0.6768   -1.3224    0.3787 H         1 <0>         0.0479
      6 C5          1.1921   -2.0166   -0.3653 C.2       1 <0>        -0.3943
      7 C6          1.0526   -3.3872   -0.3756 C.2       1 <0>         0.4729
      8 O1         -0.1764   -3.9396   -0.3555 O.3       1 <0>        -0.6452
      9 O2          2.1452   -4.1754   -0.4057 O.3       1 <0>        -0.3140
     10 C7          1.9270   -5.5825   -0.5258 C.3       1 <0>         0.0738
     11 C8          3.2661   -6.3163   -0.4304 C.3       1 <0>         0.0567
     12 N1          4.0962   -5.9737   -1.5929 N.3       1 <0>        -0.5254
     13 C9          3.6078   -6.6452   -2.8047 C.3       1 <0>         0.0178
     14 C10         5.5078   -6.2958   -1.3451 C.3       1 <0>         0.0937
     15 C11         6.3568   -5.7125   -2.4451 C.ar      1 <0>        -0.0752
     16 C12         6.6211   -6.4541   -3.5814 C.ar      1 <0>        -0.1161
     17 C13         7.3999   -5.9190   -4.5904 C.ar      1 <0>        -0.1247
     18 C14         7.9139   -4.6420   -4.4634 C.ar      1 <0>        -0.1225
     19 C15         7.6488   -3.9001   -3.3275 C.ar      1 <0>        -0.1199
     20 C16         6.8665   -4.4336   -2.3204 C.ar      1 <0>        -0.0931
     21 C17         2.4472   -1.4127   -0.2718 C.2       1 <0>         0.2969
     22 N2          2.5859   -0.1065   -0.2671 N.2       1 <0>        -0.6443
     23 C18         3.6750   -2.2817   -0.1798 C.3       1 <0>        -0.1018
     24 C19        -0.7450   -1.4107   -1.7348 C.ar      1 <0>        -0.0273
     25 C20        -0.1448   -1.1589   -2.9546 C.ar      1 <0>        -0.0575
     26 C21        -0.8164   -1.4467   -4.1278 C.ar      1 <0>        -0.1295
     27 C22        -2.0883   -1.9869   -4.0815 C.ar      1 <0>        -0.0800
     28 C23        -2.6879   -2.2394   -2.8621 C.ar      1 <0>        -0.0565
     29 C24        -2.0144   -1.9555   -1.6886 C.ar      1 <0>        -0.0107
     30 N3         -4.0498   -2.8172   -2.8127 N.pl3     1 <0>         0.0440
     31 O3         -4.6376   -3.0683   -3.8389 O.2       1 <0>        -0.1849
     32 O4         -4.5743   -3.0382   -1.7460 O.3       1 <0>        -0.1675
     33 C25        -0.7435    1.3435   -0.5108 C.2       1 <0>         0.5215
     34 O5         -0.4773    2.5318   -0.4910 O.2       1 <0>        -0.5581
     35 O6         -2.0292    0.9409   -0.6066 O.3       1 <0>        -0.3599
     36 C26        -3.0252    1.9629   -0.6810 C.3       1 <0>         0.0413
     37 H2          3.0047    2.3696   -0.2371 H         1 <0>         0.0545
     38 H3          1.5666    2.7077   -1.2301 H         1 <0>         0.0756
     39 H4          1.4421    2.7072    0.5455 H         1 <0>         0.0759
     40 H5          1.2707   -5.9182    0.2771 H         1 <0>         0.0656
     41 H6          1.4627   -5.7974   -1.4883 H         1 <0>         0.0572
     42 H7          3.7797   -6.0177    0.4835 H         1 <0>         0.0841
     43 H8          3.0906   -7.3920   -0.4136 H         1 <0>         0.0519
     44 H9          2.5954   -6.3066   -3.0248 H         1 <0>         0.0693
     45 H10         4.2619   -6.4037   -3.6426 H         1 <0>         0.0727
     46 H11         3.6038   -7.7236   -2.6460 H         1 <0>         0.0228
     47 H12         5.8140   -5.8745   -0.3876 H         1 <0>         0.0848
     48 H13         5.6351   -7.3782   -1.3232 H         1 <0>         0.0392
     49 H14         6.2196   -7.4517   -3.6806 H         1 <0>         0.1158
     50 H15         7.6070   -6.4987   -5.4778 H         1 <0>         0.1178
     51 H16         8.5228   -4.2242   -5.2514 H         1 <0>         0.1180
     52 H17         8.0506   -2.9025   -3.2282 H         1 <0>         0.1216
     53 H18         6.6563   -3.8525   -1.4347 H         1 <0>         0.1258
     54 H19         3.7730   -2.8699   -1.0922 H         1 <0>         0.0884
     55 H20         4.5567   -1.6529   -0.0563 H         1 <0>         0.0588
     56 H21         3.5832   -2.9508    0.6758 H         1 <0>         0.0743
     57 H22         0.8487   -0.7369   -2.9907 H         1 <0>         0.1285
     58 H23        -0.3479   -1.2494   -5.0806 H         1 <0>         0.1344
     59 H24        -2.6134   -2.2112   -4.9983 H         1 <0>         0.1396
     60 H25        -2.4815   -2.1563   -0.7357 H         1 <0>         0.1428
     61 H26        -4.0114    1.5045   -0.7545 H         1 <0>         0.0861
     62 H27        -2.9782    2.5820    0.2150 H         1 <0>         0.0509
     63 H28        -2.8458    2.5819   -1.5601 H         1 <0>         0.0485
@<TRIPOS>BOND
     1    1    2 1
     2    1   37 1
     3    1   38 1
     4    1   39 1
     5    2   22 1
     6    2    3 2
     7    3    4 1
     8    3   33 1
     9    4    5 1
    10    4    6 1
    11    4   24 1
    12    6    7 2
    13    6   21 1
    14    7    8 1
    15    7    9 1
    16    9   10 1
    17   10   11 1
    18   10   40 1
    19   10   41 1
    20   11   12 1
    21   11   42 1
    22   11   43 1
    23   12   13 1
    24   12   14 1
    25   13   44 1
    26   13   45 1
    27   13   46 1
    28   14   15 1
    29   14   47 1
    30   14   48 1
    31   15   20 ar
    32   15   16 ar
    33   16   17 ar
    34   16   49 1
    35   17   18 ar
    36   17   50 1
    37   18   19 ar
    38   18   51 1
    39   19   20 ar
    40   19   52 1
    41   20   53 1
    42   21   22 2
    43   21   23 1
    44   23   54 1
    45   23   55 1
    46   23   56 1
    47   24   29 ar
    48   24   25 ar
    49   25   26 ar
    50   25   57 1
    51   26   27 ar
    52   26   58 1
    53   27   28 ar
    54   27   59 1
    55   28   29 ar
    56   28   30 1
    57   29   60 1
    58   30   31 2
    59   30   32 1
    60   33   34 2
    61   33   35 1
    62   35   36 1
    63   36   61 1
    64   36   62 1
    65   36   63 1
@<TRIPOS>MOLECULE
ZINC03201891
   36    38     0     0     0
SMALL
USER_CHARGES

@<TRIPOS>ATOM
      1 C1         -0.0158    1.3119    0.0093 C.ar      1 <0>         0.3546
      2 N1          1.0888    2.0360    0.0026 N.ar      1 <0>        -0.5975
      3 C2          2.2875    1.4625   -0.0119 C.ar      1 <0>         0.5053
      4 C3          2.3582    0.0588   -0.0202 C.ar      1 <0>        -0.1065
      5 C4          1.1547   -0.6659   -0.0126 C.ar      1 <0>         0.3162
      6 N2          0.0021   -0.0041    0.0020 N.ar      1 <0>        -0.5559
      7 N3          1.5110   -1.9908   -0.0227 N.pl3     1 <0>        -0.4626
      8 C5          2.8729   -2.0476   -0.0358 C.2       1 <0>         0.2724
      9 N4          3.3680   -0.8441   -0.0343 N.2       1 <0>        -0.4691
     10 C6          0.5956   -3.1347   -0.0195 C.3       1 <0>         0.3049
     11 H1         -0.2800   -2.9068    0.5884 H         1 <0>         0.1412
     12 C7          0.1616   -3.4624   -1.4613 C.3       1 <0>         0.0402
     13 H2         -0.9250   -3.4457   -1.5458 H         1 <0>         0.0957
     14 C8          0.7020   -4.8926   -1.7044 C.3       1 <0>         0.0473
     15 H3          1.1180   -4.9860   -2.7076 H         1 <0>         0.0935
     16 C9          1.8147   -5.0060   -0.6314 C.3       1 <0>         0.0748
     17 H4          2.7313   -4.5279   -0.9770 H         1 <0>         0.0991
     18 O1          1.2648   -4.2947    0.5027 O.3       1 <0>        -0.3264
     19 C10         2.0741   -6.4716   -0.2770 C.3       1 <0>         0.1507
     20 O2          3.1798   -6.5552    0.6244 O.3       1 <0>        -0.7586
     21 P1          3.7317   -7.9505    1.2082 P.3       1 <0>         2.2126
     22 O3          4.0709   -8.9002    0.0378 O.2       1 <0>        -1.1084
     23 O4          5.0570   -7.6802    2.0814 O.3       1 <0>        -0.8969
     24 O5          2.6502   -8.5990    2.1008 O.3       1 <0>        -1.1044
     25 O6         -0.3194   -5.8678   -1.4858 O.3       1 <0>        -0.5359
     26 O7          0.7478   -2.5401   -2.3821 O.3       1 <0>        -0.5400
     27 N5          3.4393    2.2295   -0.0193 N.pl3     1 <0>        -0.8217
     28 H5         -0.9693    1.8187    0.0257 H         1 <0>         0.2007
     29 H6          3.4551   -2.9572   -0.0459 H         1 <0>         0.2179
     30 H7          1.1872   -6.8935    0.1958 H         1 <0>         0.0757
     31 H8          2.3024   -7.0301   -1.1848 H         1 <0>         0.0747
     32 H9         -1.0800   -5.7799   -2.0765 H         1 <0>         0.3814
     33 H10         0.5081   -2.6999   -3.3052 H         1 <0>         0.3847
     34 H11         3.3774    3.1975   -0.0138 H         1 <0>         0.4074
     35 H12         4.3085    1.7992   -0.0299 H         1 <0>         0.4181
     36 H13         5.4448   -8.4786    2.4651 H         1 <0>         0.4150
@<TRIPOS>BOND
     1    1    6 ar
     2    1    2 ar
     3    1   28 1
     4    2    3 ar
     5    3    4 ar
     6    3   27 1
     7    4    9 1
     8    4    5 ar
     9    5    6 ar
    10    5    7 1
    11    7    8 1
    12    7   10 1
    13    8    9 2
    14    8   29 1
    15   10   11 1
    16   10   18 1
    17   10   12 1
    18   12   13 1
    19   12   14 1
    20   12   26 1
    21   14   15 1
    22   14   16 1
    23   14   25 1
    24   16   17 1
    25   16   18 1
    26   16   19 1
    27   19   20 1
    28   19   30 1
    29   19   31 1
    30   20   21 1
    31   21   22 2
    32   21   23 1
    33   21   24 1
    34   23   36 1
    35   25   32 1
    36   26   33 1
    37   27   34 1
    38   27   35 1
@<TRIPOS>MOLECULE
ZINC03201893
   36    38     0     0     0
SMALL
USER_CHARGES

@<TRIPOS>ATOM
      1 C1         -0.0158    1.3119    0.0093 C.ar      1 <0>         0.3557
      2 N1          1.0888    2.0360    0.0026 N.ar      1 <0>        -0.5949
      3 C2          2.2875    1.4625   -0.0119 C.ar      1 <0>         0.5059
      4 C3          2.3582    0.0588   -0.0202 C.ar      1 <0>        -0.1070
      5 C4          1.1547   -0.6659   -0.0126 C.ar      1 <0>         0.3103
      6 N2          0.0021   -0.0041    0.0020 N.ar      1 <0>        -0.5447
      7 N3          1.5110   -1.9908   -0.0227 N.pl3     1 <0>        -0.4663
      8 C5          2.8729   -2.0476   -0.0358 C.2       1 <0>         0.2756
      9 N4          3.3680   -0.8441   -0.0343 N.2       1 <0>        -0.4667
     10 C6          0.5956   -3.1347   -0.0195 C.3       1 <0>         0.3125
     11 H1         -0.2963   -2.9126   -0.6053 H         1 <0>         0.1208
     12 C7          0.2130   -3.5234    1.4313 C.3       1 <0>         0.0324
     13 H2          1.0640   -3.4074    2.1024 H         1 <0>         0.0920
     14 C8         -0.1695   -5.0156    1.2770 C.3       1 <0>         0.0493
     15 H3         -1.2507   -5.1255    1.1924 H         1 <0>         0.0957
     16 C9          0.5206   -5.4491   -0.0308 C.3       1 <0>         0.0869
     17 H4         -0.2285   -5.7500   -0.7632 H         1 <0>         0.1027
     18 O1          1.2553   -4.3151   -0.5254 O.3       1 <0>        -0.3423
     19 C10         1.4746   -6.6130    0.2454 C.3       1 <0>         0.1506
     20 O2          2.0213   -7.0839   -0.9881 O.3       1 <0>        -0.7585
     21 P1          3.0671   -8.3049   -1.0743 P.3       1 <0>         2.2122
     22 O3          2.4667   -9.5473   -0.3793 O.2       1 <0>        -1.1087
     23 O4          3.3671   -8.6465   -2.6188 O.3       1 <0>        -0.8974
     24 O5          4.3832   -7.9065   -0.3699 O.3       1 <0>        -1.1050
     25 O6          0.3243   -5.7754    2.3819 O.3       1 <0>        -0.5392
     26 O7         -0.9020   -2.7551    1.8879 O.3       1 <0>        -0.5366
     27 N5          3.4393    2.2295   -0.0193 N.pl3     1 <0>        -0.8203
     28 H5         -0.9693    1.8187    0.0257 H         1 <0>         0.2027
     29 H6          3.4551   -2.9572   -0.0459 H         1 <0>         0.2287
     30 H7          2.2819   -6.2747    0.8950 H         1 <0>         0.0664
     31 H8          0.9300   -7.4212    0.7335 H         1 <0>         0.0808
     32 H9         -0.0351   -5.5042    3.2377 H         1 <0>         0.3812
     33 H10        -1.1790   -2.9622    2.7909 H         1 <0>         0.3835
     34 H11         3.3774    3.1975   -0.0138 H         1 <0>         0.4083
     35 H12         4.3085    1.7992   -0.0299 H         1 <0>         0.4188
     36 H13         3.9908   -9.3743   -2.7467 H         1 <0>         0.4146
@<TRIPOS>BOND
     1    1    6 ar
     2    1    2 ar
     3    1   28 1
     4    2    3 ar
     5    3    4 ar
     6    3   27 1
     7    4    9 1
     8    4    5 ar
     9    5    6 ar
    10    5    7 1
    11    7    8 1
    12    7   10 1
    13    8    9 2
    14    8   29 1
    15   10   11 1
    16   10   18 1
    17   10   12 1
    18   12   13 1
    19   12   14 1
    20   12   26 1
    21   14   15 1
    22   14   16 1
    23   14   25 1
    24   16   17 1
    25   16   18 1
    26   16   19 1
    27   19   20 1
    28   19   30 1
    29   19   31 1
    30   20   21 1
    31   21   22 2
    32   21   23 1
    33   21   24 1
    34   23   36 1
    35   25   32 1
    36   26   33 1
    37   27   34 1
    38   27   35 1
@<TRIPOS>MOLECULE
ZINC00897263
   57    59     0     0     0
SMALL
USER_CHARGES
1-cyclohexyl-2-(4,4-dimethyl-2,3,5,6-tetrahydropyrazin-1-yl)-1-phenyl-ethanol
@<TRIPOS>ATOM
      1 C1          0.2316    1.3981    0.1424 C.3       1 <0>        -0.0500
      2 N1          0.1629   -0.0689    0.1102 N.4       1 <0>        -0.2778
      3 C2          0.8973   -0.5676   -1.0601 C.3       1 <0>        -0.0299
      4 C3          0.8422   -2.0967   -1.0836 C.3       1 <0>        -0.0504
      5 C4         -1.3146   -2.0197    0.0105 C.3       1 <0>        -0.0316
      6 C5         -1.2414   -0.4912    0.0252 C.3       1 <0>        -0.0302
      7 C6         -0.6538   -3.9961   -1.2235 C.3       1 <0>        -0.0348
      8 C7         -0.2517   -4.4556   -2.6264 C.3       1 <0>         0.1700
      9 C8         -1.0741   -3.7181   -3.6515 C.ar      1 <0>        -0.1263
     10 C9         -2.2777   -4.2450   -4.0810 C.ar      1 <0>        -0.0945
     11 C10        -3.0344   -3.5661   -5.0177 C.ar      1 <0>        -0.1001
     12 C11        -2.5825   -2.3655   -5.5327 C.ar      1 <0>        -0.0913
     13 C12        -1.3763   -1.8412   -5.1070 C.ar      1 <0>        -0.1121
     14 C13        -0.6221   -2.5175   -4.1664 C.ar      1 <0>        -0.1351
     15 C14        -0.4984   -5.9596   -2.7607 C.3       1 <0>        -0.1065
     16 C15         0.3365   -6.7083   -1.7200 C.3       1 <0>        -0.1236
     17 C16         0.0898   -8.2123   -1.8543 C.3       1 <0>        -0.1202
     18 C17         0.4919   -8.6718   -3.2572 C.3       1 <0>        -0.1260
     19 C18        -0.3430   -7.9230   -4.2979 C.3       1 <0>        -0.1243
     20 C19        -0.0963   -6.4190   -4.1636 C.3       1 <0>        -0.1088
     21 O1          1.1341   -4.1793   -2.8391 O.3       1 <0>        -0.5414
     22 C20         0.7646   -0.6141    1.3344 C.3       1 <0>        -0.0661
     23 H1          1.2736    1.7117    0.2060 H         1 <0>         0.1364
     24 H2         -0.2148    1.8028   -0.7659 H         1 <0>         0.1306
     25 H3         -0.3129    1.7683    1.0111 H         1 <0>         0.1361
     26 H4          0.4431   -0.1734   -1.9691 H         1 <0>         0.1510
     27 H5          1.9361   -0.2425   -1.0027 H         1 <0>         0.1754
     28 H6          1.3084   -2.4915   -0.1809 H         1 <0>         0.1539
     29 H7          1.3748   -2.4667   -1.9596 H         1 <0>         0.1942
     30 H8         -0.8839   -2.4133    0.9312 H         1 <0>         0.1558
     31 H9         -2.3556   -2.3332   -0.0672 H         1 <0>         0.1731
     32 H10        -1.7883   -0.1096    0.8873 H         1 <0>         0.1755
     33 H11        -1.6844   -0.0975   -0.8896 H         1 <0>         0.1518
     34 H12         0.0150   -4.4444   -0.4887 H         1 <0>         0.1491
     35 H13        -1.6785   -4.3066   -1.0192 H         1 <0>         0.1521
     36 H14        -2.6287   -5.1852   -3.6820 H         1 <0>         0.1371
     37 H15        -3.9766   -3.9759   -5.3506 H         1 <0>         0.1401
     38 H16        -3.1715   -1.8373   -6.2678 H         1 <0>         0.1384
     39 H17        -1.0230   -0.9034   -5.5096 H         1 <0>         0.1349
     40 H18         0.3204   -2.1080   -3.8341 H         1 <0>         0.1249
     41 H19        -1.5555   -6.1703   -2.5984 H         1 <0>         0.0943
     42 H20         1.3936   -6.4976   -1.8823 H         1 <0>         0.0699
     43 H21         0.0501   -6.3810   -0.7205 H         1 <0>         0.0595
     44 H22        -0.9672   -8.4230   -1.6920 H         1 <0>         0.0673
     45 H23         0.6846   -8.7457   -1.1129 H         1 <0>         0.0719
     46 H24         0.3161   -9.7432   -3.3529 H         1 <0>         0.0715
     47 H25         1.5490   -8.4610   -3.4195 H         1 <0>         0.0651
     48 H26        -1.4001   -8.1337   -4.1356 H         1 <0>         0.0643
     49 H27        -0.0566   -8.2504   -5.2974 H         1 <0>         0.0721
     50 H28        -0.6912   -5.8856   -4.9050 H         1 <0>         0.0695
     51 H29         0.9607   -6.2083   -4.3259 H         1 <0>         0.0740
     52 H30         1.7240   -4.6222   -2.2138 H         1 <0>         0.3928
     53 H31         0.2201   -0.2437    2.2029 H         1 <0>         0.1407
     54 H32         0.7137   -1.7026    1.3106 H         1 <0>         0.1158
     55 H33         1.8066   -0.3004    1.3979 H         1 <0>         0.1409
     56 N2         -0.5710   -2.5209   -1.1645 N.4       1 <0>        -0.4025
     57 H34        -0.9891   -2.1289   -2.0164 H         1 <0>         0.4336
@<TRIPOS>BOND
     1    1    2 1
     2    1   23 1
     3    1   24 1
     4    1   25 1
     5    2    6 1
     6    2    3 1
     7    2   22 1
     8    3    4 1
     9    3   26 1
    10    3   27 1
    11    4   28 1
    12    4   29 1
    13    4   56 1
    14    5    6 1
    15    5   30 1
    16    5   31 1
    17    5   56 1
    18    6   32 1
    19    6   33 1
    20    7    8 1
    21    7   34 1
    22    7   35 1
    23    7   56 1
    24    8    9 1
    25    8   15 1
    26    8   21 1
    27    9   14 ar
    28    9   10 ar
    29   10   11 ar
    30   10   36 1
    31   11   12 ar
    32   11   37 1
    33   12   13 ar
    34   12   38 1
    35   13   14 ar
    36   13   39 1
    37   14   40 1
    38   15   20 1
    39   15   16 1
    40   15   41 1
    41   16   17 1
    42   16   42 1
    43   16   43 1
    44   17   18 1
    45   17   44 1
    46   17   45 1
    47   18   19 1
    48   18   46 1
    49   18   47 1
    50   19   20 1
    51   19   48 1
    52   19   49 1
    53   20   50 1
    54   20   51 1
    55   21   52 1
    56   22   53 1
    57   22   54 1
    58   22   55 1
    59   56   57 1
@<TRIPOS>MOLECULE
ZINC01851155
   43    44     0     0     0
SMALL
USER_CHARGES

@<TRIPOS>ATOM
      1 C1         -0.0187    1.5258    0.0104 C.3       1 <0>        -0.1579
      2 C2          0.0021   -0.0041    0.0020 C.3       1 <0>        -0.1277
      3 C3          0.7182   -0.4975   -1.2568 C.3       1 <0>        -0.1490
      4 C4          0.7421   -0.5109    1.2415 C.3       1 <0>         0.1072
      5 H1          0.8346   -1.5958    1.1912 H         1 <0>         0.1184
      6 C5         -0.0298   -0.1295    2.4784 C.2       1 <0>         0.4711
      7 O1          0.3082    0.8308    3.1293 O.2       1 <0>        -0.4937
      8 O2         -1.0928   -0.8564    2.8569 O.3       1 <0>        -0.3458
      9 C6         -1.7774   -0.4375    4.0392 C.3       1 <0>         0.0672
     10 C7         -2.9517   -1.3803    4.3097 C.3       1 <0>         0.0754
     11 O3         -2.4551   -2.6876    4.6036 O.3       1 <0>        -0.3877
     12 C8         -3.4762   -3.6503    4.8729 C.3       1 <0>         0.2985
     13 N1         -2.8603   -4.9482    5.1600 N.pl3     1 <0>        -0.4601
     14 C9         -1.5230   -5.2202    5.1801 C.2       1 <0>         0.2302
     15 N2         -1.3324   -6.4737    5.4713 N.2       1 <0>        -0.4238
     16 C10        -2.5310   -7.0791    5.6547 C.2       1 <0>        -0.1412
     17 C11        -3.5205   -6.1081    5.4627 C.2       1 <0>         0.3095
     18 N3         -4.8100   -6.4412    5.5913 N.2       1 <0>        -0.5841
     19 C12        -5.1674   -7.6681    5.8987 C.2       1 <0>         0.6580
     20 N4         -4.2505   -8.6562    6.1007 N.am      1 <0>        -0.6569
     21 H2         -4.5477   -9.5516    6.3263 H         1 <0>         0.4202
     22 C13        -2.9296   -8.3968    5.9798 C.2       1 <0>         0.5957
     23 O4         -2.1018   -9.2734    6.1603 O.2       1 <0>        -0.5049
     24 N5         -6.5022   -7.9627    6.0203 N.pl3     1 <0>        -0.8179
     25 N6          2.0803    0.0928    1.2939 N.3       1 <0>        -0.8296
     26 H3          1.0039    1.9031    0.0027 H         1 <0>         0.0593
     27 H4         -0.5459    1.8868   -0.8726 H         1 <0>         0.0656
     28 H5         -0.5289    1.8773    0.9072 H         1 <0>         0.0571
     29 H6         -1.0205   -0.3814    0.0098 H         1 <0>         0.0864
     30 H7          1.7408   -0.1202   -1.2645 H         1 <0>         0.0571
     31 H8          0.7330   -1.5874   -1.2628 H         1 <0>         0.0635
     32 H9          0.1910   -0.1364   -2.1398 H         1 <0>         0.0652
     33 H10        -1.0901   -0.4614    4.8849 H         1 <0>         0.0824
     34 H11        -2.1504    0.5775    3.9027 H         1 <0>         0.0903
     35 H12        -3.5264   -1.0105    5.1589 H         1 <0>         0.0838
     36 H13        -3.5925   -1.4245    3.4290 H         1 <0>         0.0723
     37 H14        -4.0618   -3.3276    5.7338 H         1 <0>         0.0818
     38 H15        -4.1278   -3.7416    4.0039 H         1 <0>         0.0826
     39 H16        -0.7403   -4.5024    4.9835 H         1 <0>         0.2243
     40 H17        -7.1665   -7.2699    5.8798 H         1 <0>         0.4293
     41 H18        -6.7813   -8.8636    6.2466 H         1 <0>         0.4181
     42 H19         2.6402   -0.2002    0.5073 H         1 <0>         0.3564
     43 H20         2.0215    1.0989    1.3411 H         1 <0>         0.3536
@<TRIPOS>BOND
     1    1    2 1
     2    1   26 1
     3    1   27 1
     4    1   28 1
     5    2    3 1
     6    2    4 1
     7    2   29 1
     8    3   30 1
     9    3   31 1
    10    3   32 1
    11    4    5 1
    12    4    6 1
    13    4   25 1
    14    6    7 2
    15    6    8 1
    16    8    9 1
    17    9   10 1
    18    9   33 1
    19    9   34 1
    20   10   11 1
    21   10   35 1
    22   10   36 1
    23   11   12 1
    24   12   13 1
    25   12   37 1
    26   12   38 1
    27   13   17 1
    28   13   14 1
    29   14   15 2
    30   14   39 1
    31   15   16 1
    32   16   22 1
    33   16   17 2
    34   17   18 1
    35   18   19 2
    36   19   20 1
    37   19   24 1
    38   20   21 1
    39   20   22 am
    40   22   23 2
    41   24   40 1
    42   24   41 1
    43   25   42 1
    44   25   43 1
@<TRIPOS>MOLECULE
ZINC01851149
   57    60     0     0     0
SMALL
USER_CHARGES

@<TRIPOS>ATOM
      1 C1         -0.0167    1.3781    0.0096 C.ar      1 <0>        -0.0962
      2 C2          1.1690    2.0873    0.0021 C.ar      1 <0>        -0.1094
      3 C3          2.3816    1.4109   -0.0131 C.ar      1 <0>         0.1932
      4 C4          2.3986    0.0211   -0.0208 C.ar      1 <0>        -0.0428
      5 C5          1.2084   -0.6828   -0.0132 C.ar      1 <0>        -0.0286
      6 C6          0.0021   -0.0041    0.0020 C.ar      1 <0>        -0.1045
      7 Cl1         1.2271   -2.4187   -0.0233 Cl        1 <0>        -0.0488
      8 Cl2         3.9117   -0.8297   -0.0404 Cl        1 <0>        -0.0433
      9 N1          3.5822    2.1260   -0.0212 N.pl3     1 <0>        -0.6753
     10 C7          4.2154    2.5239   -1.2877 C.3       1 <0>         0.1522
     11 C8          5.6814    2.0786   -1.2601 C.3       1 <0>         0.0390
     12 N2          6.3271    2.6054   -0.0504 N.3       1 <0>        -0.5335
     13 C9          5.7110    2.0562    1.1648 C.3       1 <0>         0.0352
     14 C10         4.2431    2.5059    1.2366 C.3       1 <0>         0.1520
     15 C11         7.7731    2.3471   -0.0705 C.3       1 <0>         0.0570
     16 C12         8.4448    3.1181    1.0676 C.3       1 <0>        -0.1122
     17 C13         9.9508    2.8491    1.0467 C.3       1 <0>        -0.1185
     18 C14        10.6225    3.6201    2.1847 C.3       1 <0>         0.0609
     19 O1         12.0291    3.3688    2.1652 O.3       1 <0>        -0.3131
     20 C15        12.7788    3.9828    3.1179 C.ar      1 <0>         0.1632
     21 C16        12.1712    4.8060    4.0560 C.ar      1 <0>        -0.2281
     22 C17        12.9321    5.4316    5.0250 C.ar      1 <0>        -0.0412
     23 C18        14.2995    5.2392    5.0634 C.ar      1 <0>        -0.1625
     24 C19        14.9129    4.4161    4.1277 C.ar      1 <0>         0.2001
     25 C20        14.1497    3.7829    3.1569 C.ar      1 <0>        -0.1880
     26 N3         16.2971    4.2225    4.1697 N.am      1 <0>        -0.6633
     27 C21        16.9915    4.5031    5.2876 C.2       1 <0>         0.5225
     28 O2         18.1937    4.3433    5.3024 O.2       1 <0>        -0.5237
     29 C22        16.2937    5.0132    6.5196 C.3       1 <0>        -0.1395
     30 C23        15.1296    5.9209    6.1201 C.3       1 <0>        -0.0723
     31 H1         -0.9596    1.9044    0.0260 H         1 <0>         0.1404
     32 H2          1.1527    3.1672    0.0077 H         1 <0>         0.1387
     33 H3         -0.9265   -0.5556    0.0083 H         1 <0>         0.1426
     34 H4          3.7022    2.0431   -2.1205 H         1 <0>         0.0715
     35 H5          4.1638    3.6071   -1.3984 H         1 <0>         0.0629
     36 H6          5.7306    0.9897   -1.2538 H         1 <0>         0.0403
     37 H7          6.1944    2.4613   -2.1423 H         1 <0>         0.0804
     38 H8          5.7599    0.9676    1.1373 H         1 <0>         0.0406
     39 H9          6.2457    2.4226    2.0412 H         1 <0>         0.0819
     40 H10         4.1941    3.5874    1.3639 H         1 <0>         0.0629
     41 H11         3.7483    2.0131    2.0736 H         1 <0>         0.0709
     42 H12         7.9533    1.2798    0.0578 H         1 <0>         0.0339
     43 H13         8.1873    2.6734   -1.0245 H         1 <0>         0.0769
     44 H14         8.2646    4.1855    0.9393 H         1 <0>         0.0762
     45 H15         8.0306    2.7918    2.0216 H         1 <0>         0.0660
     46 H16        10.1310    1.7817    1.1750 H         1 <0>         0.0732
     47 H17        10.3650    3.1754    0.0927 H         1 <0>         0.0761
     48 H18        10.4423    4.6874    2.0565 H         1 <0>         0.0659
     49 H19        10.2083    3.2938    3.1387 H         1 <0>         0.0641
     50 H20        11.1023    4.9580    4.0282 H         1 <0>         0.1320
     51 H21        12.4571    6.0722    5.7533 H         1 <0>         0.1337
     52 H22        14.6236    3.1389    2.4308 H         1 <0>         0.1367
     53 H23        16.7599    3.8832    3.3877 H         1 <0>         0.4126
     54 H24        15.9140    4.1697    7.0961 H         1 <0>         0.1050
     55 H25        17.0002    5.5774    7.1284 H         1 <0>         0.1106
     56 H26        15.5192    6.8597    5.7264 H         1 <0>         0.0818
     57 H27        14.5104    6.1229    6.9941 H         1 <0>         0.0917
@<TRIPOS>BOND
     1    1    6 ar
     2    1    2 ar
     3    1   31 1
     4    2    3 ar
     5    2   32 1
     6    3    4 ar
     7    3    9 1
     8    4    5 ar
     9    4    8 1
    10    5    6 ar
    11    5    7 1
    12    6   33 1
    13    9   14 1
    14    9   10 1
    15   10   11 1
    16   10   34 1
    17   10   35 1
    18   11   12 1
    19   11   36 1
    20   11   37 1
    21   12   13 1
    22   12   15 1
    23   13   14 1
    24   13   38 1
    25   13   39 1
    26   14   40 1
    27   14   41 1
    28   15   16 1
    29   15   42 1
    30   15   43 1
    31   16   17 1
    32   16   44 1
    33   16   45 1
    34   17   18 1
    35   17   46 1
    36   17   47 1
    37   18   19 1
    38   18   48 1
    39   18   49 1
    40   19   20 1
    41   20   25 ar
    42   20   21 ar
    43   21   22 ar
    44   21   50 1
    45   22   23 ar
    46   22   51 1
    47   23   30 1
    48   23   24 ar
    49   24   25 ar
    50   24   26 1
    51   25   52 1
    52   26   27 am
    53   26   53 1
    54   27   28 2
    55   27   29 1
    56   29   30 1
    57   29   54 1
    58   29   55 1
    59   30   56 1
    60   30   57 1
@<TRIPOS>MOLECULE
ZINC00895030
   13    12     0     0     0
SMALL
USER_CHARGES

@<TRIPOS>ATOM
      1 C1         -0.0187    1.5258    0.0104 C.3       1 <0>        -0.1733
      2 C2          0.0021   -0.0041    0.0020 C.3       1 <0>        -0.0896
      3 C3         -1.4117   -0.5257    0.0127 C.2       1 <0>         0.4691
      4 O1         -2.3406    0.2469    0.0257 O.2       1 <0>        -0.5239
      5 O2         -1.6391   -1.8486    0.0078 O.3       1 <0>        -0.5135
      6 C4          1.3951    2.0474   -0.0003 C.2       1 <0>         0.4923
      7 O3          2.3325    1.2678   -0.0134 O.co2     1 <0>        -0.6987
      8 O4          1.6016    3.2490    0.0042 O.co2     1 <0>        -0.6992
      9 H1         -0.5459    1.8868   -0.8726 H         1 <0>         0.0661
     10 H2         -0.5289    1.8773    0.9072 H         1 <0>         0.0661
     11 H3          0.5123   -0.3556   -0.8948 H         1 <0>         0.1044
     12 H4          0.5293   -0.3651    0.8851 H         1 <0>         0.1044
     13 H5         -2.5763   -2.0866    0.0155 H         1 <0>         0.3958
@<TRIPOS>BOND
     1    1    2 1
     2    1    6 1
     3    1    9 1
     4    1   10 1
     5    2    3 1
     6    2   11 1
     7    2   12 1
     8    3    4 2
     9    3    5 1
    10    5   13 1
    11    6    7 2
    12    6    8 1
@<TRIPOS>MOLECULE
ZINC13298712
   34    34     0     0     0
SMALL
USER_CHARGES

@<TRIPOS>ATOM
      1 C1         -0.0187    1.5258    0.0104 C.3       1 <0>        -0.1552
      2 C2          0.0021   -0.0041    0.0020 C.3       1 <0>        -0.1208
      3 C3          0.7182   -0.4975   -1.2568 C.3       1 <0>        -0.1292
      4 C4          0.7390   -2.0273   -1.2652 C.3       1 <0>        -0.0744
      5 H1         -0.2789   -2.4050   -1.1679 H         1 <0>         0.1052
      6 C5          1.5844   -2.5324   -0.0943 C.3       1 <0>        -0.1669
      7 C6          1.3429   -2.5219   -2.5810 C.3       1 <0>        -0.1112
      8 C7          2.7560   -1.9799   -2.6851 C.2       1 <0>         0.5329
      9 O1          3.5871   -2.2240   -1.8368 O.2       1 <0>        -0.4357
     10 N1          3.0538   -1.2160   -3.7575 N.am      1 <0>        -0.6224
     11 C8          2.1483   -0.9373   -4.7021 C.2       1 <0>         0.5458
     12 N2          0.8818   -1.3686   -4.6962 N.am      1 <0>        -0.6230
     13 C9          0.3964   -2.1466   -3.7055 C.2       1 <0>         0.5332
     14 O2         -0.7536   -2.5306   -3.7139 O.2       1 <0>        -0.4407
     15 S1          2.6464    0.0432   -6.0142 S.2       1 <0>        -0.4929
     16 C10         1.4220   -4.0487   -2.5206 C.3       1 <0>        -0.1122
     17 C11         2.0229   -4.5803   -3.8234 C.3       1 <0>        -0.1680
     18 H2          1.0039    1.9031    0.0027 H         1 <0>         0.0546
     19 H3         -0.5459    1.8868   -0.8726 H         1 <0>         0.0538
     20 H4         -0.5289    1.8773    0.9072 H         1 <0>         0.0592
     21 H5          0.5293   -0.3651    0.8851 H         1 <0>         0.0709
     22 H6         -1.0205   -0.3814    0.0098 H         1 <0>         0.0668
     23 H7          0.1910   -0.1364   -2.1398 H         1 <0>         0.0584
     24 H8          1.7408   -0.1202   -1.2645 H         1 <0>         0.0643
     25 H9          2.6023   -2.1546   -0.1916 H         1 <0>         0.0838
     26 H10         1.1541   -2.1800    0.8431 H         1 <0>         0.0701
     27 H11         1.5992   -3.6222   -0.1003 H         1 <0>         0.0668
     28 H12         0.2949   -1.1148   -5.4256 H         1 <0>         0.4470
     29 H13         2.0512   -4.3470   -1.6820 H         1 <0>         0.1040
     30 H14         0.4211   -4.4594   -2.3880 H         1 <0>         0.0992
     31 H15         2.0792   -5.6680   -3.7803 H         1 <0>         0.0805
     32 H16         1.3937   -4.2820   -4.6620 H         1 <0>         0.0542
     33 H17         3.0238   -4.1696   -3.9560 H         1 <0>         0.0549
     34 H18         3.9510   -0.8581   -3.8456 H         1 <0>         0.4469
@<TRIPOS>BOND
     1    1    2 1
     2    1   18 1
     3    1   19 1
     4    1   20 1
     5    2    3 1
     6    2   21 1
     7    2   22 1
     8    3    4 1
     9    3   23 1
    10    3   24 1
    11    4    5 1
    12    4    6 1
    13    4    7 1
    14    6   25 1
    15    6   26 1
    16    6   27 1
    17    7    8 1
    18    7   16 1
    19    7   13 1
    20    8    9 2
    21    8   10 am
    22   10   11 1
    23   10   34 1
    24   11   12 1
    25   11   15 2
    26   12   13 am
    27   12   28 1
    28   13   14 2
    29   16   17 1
    30   16   29 1
    31   16   30 1
    32   17   31 1
    33   17   32 1
    34   17   33 1
@<TRIPOS>MOLECULE
ZINC17920432
   34    34     0     0     0
SMALL
USER_CHARGES

@<TRIPOS>ATOM
      1 C1         -0.0187    1.5258    0.0104 C.3       1 <0>        -0.1552
      2 C2          0.0021   -0.0041    0.0020 C.3       1 <0>        -0.1208
      3 C3          0.7182   -0.4975   -1.2568 C.3       1 <0>        -0.1292
      4 C4          0.7390   -2.0273   -1.2652 C.3       1 <0>        -0.0744
      5 H1          1.1870   -2.3897   -0.3400 H         1 <0>         0.1052
      6 C5         -0.6921   -2.5562   -1.3801 C.3       1 <0>        -0.1669
      7 C6          1.5619   -2.5197   -2.4574 C.3       1 <0>        -0.1112
      8 C7          0.9130   -1.9991   -3.7260 C.2       1 <0>         0.5329
      9 O1         -0.2388   -2.2634   -3.9971 O.2       1 <0>        -0.4357
     10 N1          1.6655   -1.2305   -4.5416 N.am      1 <0>        -0.6224
     11 C8          2.9377   -0.9298   -4.2568 C.2       1 <0>         0.5457
     12 N2          3.5932   -1.3411   -3.1654 N.am      1 <0>        -0.6229
     13 C9          3.0074   -2.1192   -2.2308 C.2       1 <0>         0.5331
     14 O2          3.6140   -2.4843   -1.2465 O.2       1 <0>        -0.4408
     15 S1          3.7889    0.0535   -5.3702 S.2       1 <0>        -0.4929
     16 C10         1.4935   -4.0480   -2.4802 C.3       1 <0>        -0.1121
     17 C11         2.3074   -4.5773   -3.6627 C.3       1 <0>        -0.1680
     18 H2          1.0039    1.9031    0.0027 H         1 <0>         0.0538
     19 H3         -0.5459    1.8868   -0.8726 H         1 <0>         0.0546
     20 H4         -0.5289    1.8773    0.9072 H         1 <0>         0.0592
     21 H5          0.5293   -0.3651    0.8851 H         1 <0>         0.0668
     22 H6         -1.0205   -0.3814    0.0098 H         1 <0>         0.0709
     23 H7          0.1910   -0.1364   -2.1398 H         1 <0>         0.0643
     24 H8          1.7408   -0.1202   -1.2645 H         1 <0>         0.0584
     25 H9         -1.1402   -2.1938   -2.3053 H         1 <0>         0.0838
     26 H10        -0.6774   -3.6460   -1.3861 H         1 <0>         0.0667
     27 H11        -1.2784   -2.2054   -0.5308 H         1 <0>         0.0701
     28 H12         4.5171   -1.0725   -3.0424 H         1 <0>         0.4470
     29 H13         1.9031   -4.4439   -1.5509 H         1 <0>         0.0992
     30 H14         0.4553   -4.3637   -2.5833 H         1 <0>         0.1040
     31 H15         2.2587   -5.6661   -3.6789 H         1 <0>         0.0805
     32 H16         1.8978   -4.1814   -4.5920 H         1 <0>         0.0549
     33 H17         3.3456   -4.2616   -3.5595 H         1 <0>         0.0542
     34 H18         1.2722   -0.8861   -5.3587 H         1 <0>         0.4469
@<TRIPOS>BOND
     1    1    2 1
     2    1   18 1
     3    1   19 1
     4    1   20 1
     5    2    3 1
     6    2   21 1
     7    2   22 1
     8    3    4 1
     9    3   23 1
    10    3   24 1
    11    4    5 1
    12    4    6 1
    13    4    7 1
    14    6   25 1
    15    6   26 1
    16    6   27 1
    17    7    8 1
    18    7   16 1
    19    7   13 1
    20    8    9 2
    21    8   10 am
    22   10   11 1
    23   10   34 1
    24   11   12 1
    25   11   15 2
    26   12   13 am
    27   12   28 1
    28   13   14 2
    29   16   17 1
    30   16   29 1
    31   16   30 1
    32   17   31 1
    33   17   32 1
    34   17   33 1
@<TRIPOS>MOLECULE
ZINC18115268
   33    33     0     0     0
SMALL
USER_CHARGES

@<TRIPOS>ATOM
      1 C1         -0.4661    1.1866   -0.1622 C.3       1 <0>        -0.0808
      2 C2         -0.2855   -0.3096   -0.1656 C.2       1 <0>         0.0013
      3 C3         -0.1306   -1.0970   -1.2470 C.2       1 <0>         0.0103
      4 N1         -0.0014   -2.3631   -0.8234 N.2       1 <0>        -0.4771
      5 C4         -0.0704   -2.3901    0.4795 C.2       1 <0>         0.1895
      6 N2         -0.2415   -1.1286    0.9303 N.pl3     1 <0>        -0.5674
      7 C5         -0.1066   -0.6365   -2.6817 C.3       1 <0>         0.0072
      8 S1          1.5984   -0.2473   -3.1634 S.3       1 <0>        -0.2472
      9 C6          1.4558    0.2839   -4.8920 C.3       1 <0>        -0.0848
     10 C7          2.8413    0.6469   -5.4300 C.3       1 <0>         0.0930
     11 N3          2.7261    1.0759   -6.8260 N.2       1 <0>        -0.6229
     12 C8          3.0461    2.2929   -7.1619 C.2       1 <0>         0.6322
     13 N4          2.8244    2.7326   -8.4453 N.pl3     1 <0>        -0.7165
     14 C9          3.1844    4.1016   -8.8231 C.3       1 <0>         0.0688
     15 N5          3.6076    3.1407   -6.2296 N.pl3     1 <0>        -0.6338
     16 C10         3.8302    4.4401   -6.5428 C.1       1 <0>         0.4107
     17 N6          4.0169    5.5295   -6.8053 N.1       1 <0>        -0.4099
     18 H1          0.5094    1.6702   -0.1101 H         1 <0>         0.0795
     19 H2         -0.9752    1.4931   -1.0759 H         1 <0>         0.0821
     20 H3         -1.0630    1.4785    0.7018 H         1 <0>         0.0667
     21 H4          0.0015   -3.2743    1.0955 H         1 <0>         0.2116
     22 H5         -0.4939   -1.4276   -3.3238 H         1 <0>         0.0947
     23 H6         -0.7264    0.2538   -2.7879 H         1 <0>         0.0905
     24 H7          1.0356   -0.5265   -5.4876 H         1 <0>         0.0915
     25 H8          0.8031    1.1549   -4.9518 H         1 <0>         0.0771
     26 H9          3.2615    1.4573   -4.8344 H         1 <0>         0.0377
     27 H10         3.4939   -0.2241   -5.3702 H         1 <0>         0.0900
     28 H11         2.4296    2.1365   -9.1008 H         1 <0>         0.4266
     29 H12         4.2540    4.2500   -8.6750 H         1 <0>         0.0616
     30 H13         2.9365    4.2662   -9.8717 H         1 <0>         0.0895
     31 H14         2.6305    4.8070   -8.2037 H         1 <0>         0.0655
     32 H15         3.8430    2.8067   -5.3499 H         1 <0>         0.4412
     33 H16        -0.3205   -0.8544    1.8573 H         1 <0>         0.4215
@<TRIPOS>BOND
     1    1    2 1
     2    1   18 1
     3    1   19 1
     4    1   20 1
     5    2    6 1
     6    2    3 2
     7    3    4 1
     8    3    7 1
     9    4    5 2
    10    5    6 1
    11    5   21 1
    12    6   33 1
    13    7    8 1
    14    7   22 1
    15    7   23 1
    16    8    9 1
    17    9   10 1
    18    9   24 1
    19    9   25 1
    20   10   11 1
    21   10   26 1
    22   10   27 1
    23   11   12 2
    24   12   13 1
    25   12   15 1
    26   13   14 1
    27   13   28 1
    28   14   29 1
    29   14   30 1
    30   14   31 1
    31   15   16 1
    32   15   32 1
    33   16   17 3
@<TRIPOS>MOLECULE
ZINC00896695
   19    18     0     0     0
SMALL
USER_CHARGES

@<TRIPOS>ATOM
      1 C1         -0.0187    1.5258    0.0104 C.3       1 <0>         0.0469
      2 C2          0.0021   -0.0041    0.0020 C.3       1 <0>         0.1263
      3 C3          0.6310   -0.5127    1.3007 C.3       1 <0>         0.0928
      4 O1         -0.1376   -0.0529    2.4142 O.3       1 <0>        -0.5757
      5 C4         -1.4290   -0.5329   -0.1129 C.3       1 <0>         0.0940
      6 O2         -1.4096   -1.9617   -0.1207 O.3       1 <0>        -0.5541
      7 N1          0.7922   -0.4768   -1.1426 N.3       1 <0>        -0.8223
      8 O3          1.3220    2.0204    0.0003 O.3       1 <0>        -0.5712
      9 H1         -0.5459    1.8868   -0.8726 H         1 <0>         0.0455
     10 H2         -0.5289    1.8773    0.9072 H         1 <0>         0.0625
     11 H3          0.6458   -1.6026    1.2947 H         1 <0>         0.0633
     12 H4          1.6506   -0.1360    1.3826 H         1 <0>         0.0500
     13 H5          0.2040   -0.3384    3.2726 H         1 <0>         0.3839
     14 H6         -2.0153   -0.1821    0.7365 H         1 <0>         0.0590
     15 H7         -1.8771   -0.1705   -1.0381 H         1 <0>         0.0425
     16 H8         -2.2850   -2.3666   -0.1916 H         1 <0>         0.3777
     17 H9          0.3968   -0.1538   -2.0130 H         1 <0>         0.3443
     18 H10         1.3852    2.9853    0.0049 H         1 <0>         0.3852
     19 H11         1.7572   -0.1947   -1.0571 H         1 <0>         0.3495
@<TRIPOS>BOND
     1    1    2 1
     2    1    8 1
     3    1    9 1
     4    1   10 1
     5    2    3 1
     6    2    5 1
     7    2    7 1
     8    3    4 1
     9    3   11 1
    10    3   12 1
    11    4   13 1
    12    5    6 1
    13    5   14 1
    14    5   15 1
    15    6   16 1
    16    7   17 1
    17    7   19 1
    18    8   18 1
@<TRIPOS>MOLECULE
ZINC00896740
   39    41     0     0     0
SMALL
USER_CHARGES

@<TRIPOS>ATOM
      1 C1         -0.0167    1.3792    0.0096 C.ar      1 <0>        -0.1052
      2 C2          1.1708    2.0869    0.0021 C.ar      1 <0>        -0.0748
      3 C3          2.3773    1.4131   -0.0135 C.ar      1 <0>        -0.0741
      4 C4          2.3974    0.0294   -0.0212 C.ar      1 <0>        -0.0187
      5 C5          1.2096   -0.6792   -0.0132 C.ar      1 <0>        -0.0996
      6 C6          0.0021   -0.0041    0.0020 C.ar      1 <0>        -0.0239
      7 Cl1        -1.4893   -0.8926    0.0121 Cl        1 <0>        -0.0543
      8 Cl2         3.9130   -0.8168   -0.0414 Cl        1 <0>        -0.0473
      9 C7          3.6714    2.1853   -0.0227 C.3       1 <0>         0.0894
     10 O1          3.3901    3.5863   -0.0128 O.3       1 <0>        -0.3675
     11 C8          4.5556    4.4132   -0.0205 C.3       1 <0>         0.1203
     12 H1          5.3720    3.8950    0.4825 H         1 <0>         0.0901
     13 C9          4.9569    4.7156   -1.4656 C.3       1 <0>         0.0880
     14 N1          5.3585    3.4737   -2.1309 N.pl3     1 <0>        -0.4630
     15 C10         6.6207    2.9457   -2.1720 C.2       1 <0>        -0.0578
     16 C11         6.5425    1.8039   -2.8819 C.2       1 <0>        -0.0235
     17 N2          5.2673    1.6393   -3.2638 N.2       1 <0>        -0.4848
     18 C12         4.5514    2.6330   -2.8133 C.2       1 <0>         0.1858
     19 C13         4.2606    5.7038    0.6995 C.ar      1 <0>        -0.0827
     20 C14         2.9600    6.1639    0.7884 C.ar      1 <0>        -0.0627
     21 C15         2.6886    7.3473    1.4484 C.ar      1 <0>        -0.1047
     22 C16         3.7188    8.0723    2.0212 C.ar      1 <0>        -0.0173
     23 C17         5.0201    7.6123    1.9331 C.ar      1 <0>        -0.1010
     24 C18         5.2906    6.4250    1.2763 C.ar      1 <0>        -0.0164
     25 Cl3         6.9229    5.8437    1.1703 Cl        1 <0>        -0.0500
     26 Cl4         3.3778    9.5592    2.8499 Cl        1 <0>        -0.0491
     27 H2         -0.9592    1.9062    0.0260 H         1 <0>         0.1422
     28 H3          1.1557    3.1667    0.0080 H         1 <0>         0.1496
     29 H4          1.2248   -1.7590   -0.0191 H         1 <0>         0.1469
     30 H5          4.2557    1.9258    0.8601 H         1 <0>         0.0703
     31 H6          4.2377    1.9347   -0.9198 H         1 <0>         0.0923
     32 H7          4.1099    5.1534   -1.9939 H         1 <0>         0.1081
     33 H8          5.7910    5.4172   -1.4718 H         1 <0>         0.1055
     34 H9          7.5086    3.3644   -1.7220 H         1 <0>         0.1730
     35 H10         7.3627    1.1376   -3.1046 H         1 <0>         0.1698
     36 H11         3.4898    2.7630   -2.9636 H         1 <0>         0.2009
     37 H12         2.1557    5.5984    0.3415 H         1 <0>         0.1516
     38 H13         1.6724    7.7066    1.5169 H         1 <0>         0.1454
     39 H14         5.8245    8.1778    2.3799 H         1 <0>         0.1491
@<TRIPOS>BOND
     1    1    6 ar
     2    1    2 ar
     3    1   27 1
     4    2    3 ar
     5    2   28 1
     6    3    4 ar
     7    3    9 1
     8    4    5 ar
     9    4    8 1
    10    5    6 ar
    11    5   29 1
    12    6    7 1
    13    9   10 1
    14    9   30 1
    15    9   31 1
    16   10   11 1
    17   11   12 1
    18   11   13 1
    19   11   19 1
    20   13   14 1
    21   13   32 1
    22   13   33 1
    23   14   18 1
    24   14   15 1
    25   15   16 2
    26   15   34 1
    27   16   17 1
    28   16   35 1
    29   17   18 2
    30   18   36 1
    31   19   24 ar
    32   19   20 ar
    33   20   21 ar
    34   20   37 1
    35   21   22 ar
    36   21   38 1
    37   22   23 ar
    38   22   26 1
    39   23   24 ar
    40   23   39 1
    41   24   25 1
@<TRIPOS>MOLECULE
ZINC03830847
   35    37     0     0     0
SMALL
USER_CHARGES

@<TRIPOS>ATOM
      1 C1          0.0853    0.8060   -1.7056 C.3       1 <0>         0.0462
      2 O1          0.0558   -0.5965   -1.4335 O.3       1 <0>        -0.3320
      3 C2         -1.1533   -1.1509   -1.2040 C.2       1 <0>         0.6420
      4 O2         -2.1556   -0.4601   -1.2346 O.2       1 <0>        -0.6168
      5 N1         -1.2505   -2.4585   -0.9432 N.2       1 <0>        -0.6381
      6 C3         -2.4248   -2.9850   -0.6196 C.2       1 <0>         0.6702
      7 N2         -2.6291   -4.2689   -0.2164 N.pl3     1 <0>        -0.5842
      8 H1         -1.9442   -4.9487   -0.1182 H         1 <0>         0.4509
      9 C4         -3.9835   -4.4395    0.0306 C.ar      1 <0>         0.1169
     10 C5         -4.7361   -5.5287    0.4571 C.ar      1 <0>        -0.1032
     11 C6         -6.0968   -5.4056    0.6196 C.ar      1 <0>        -0.0462
     12 C7         -6.7284   -4.1849    0.3561 C.ar      1 <0>        -0.1434
     13 C8         -5.9762   -3.0886   -0.0724 C.ar      1 <0>        -0.0601
     14 C9         -4.6087   -3.2159   -0.2342 C.ar      1 <0>         0.0711
     15 N3         -3.6146   -2.3257   -0.6326 N.pl3     1 <0>        -0.6091
     16 C10        -8.1878   -4.0561    0.5303 C.2       1 <0>         0.4465
     17 O3         -8.7738   -4.7839    1.3086 O.2       1 <0>        -0.4357
     18 C11        -8.9367   -3.0436   -0.2403 C.ar      1 <0>        -0.1758
     19 C12        -8.3829   -2.4933   -1.3993 C.ar      1 <0>        -0.0530
     20 C13        -9.0864   -1.5486   -2.1146 C.ar      1 <0>        -0.1644
     21 C14       -10.3416   -1.1435   -1.6859 C.ar      1 <0>         0.1337
     22 C15       -10.8961   -1.6858   -0.5362 C.ar      1 <0>        -0.1631
     23 C16       -10.2045   -2.6361    0.1834 C.ar      1 <0>        -0.0294
     24 F1        -11.0267   -0.2167   -2.3908 F         1 <0>        -0.1307
     25 H2          1.1152    1.1224   -1.8711 H         1 <0>         0.1055
     26 H3         -0.5068    1.0158   -2.5964 H         1 <0>         0.0598
     27 H4         -0.3299    1.3496   -0.8570 H         1 <0>         0.0595
     28 H5         -3.7477   -1.3969   -0.8785 H         1 <0>         0.4538
     29 H6         -4.2518   -6.4723    0.6606 H         1 <0>         0.1476
     30 H7         -6.6787   -6.2530    0.9509 H         1 <0>         0.1510
     31 H8         -6.4607   -2.1454   -0.2769 H         1 <0>         0.1482
     32 H9         -7.4052   -2.8076   -1.7337 H         1 <0>         0.1455
     33 H10        -8.6594   -1.1227   -3.0104 H         1 <0>         0.1448
     34 H11       -11.8736   -1.3661   -0.2066 H         1 <0>         0.1457
     35 H12       -10.6393   -3.0613    1.0759 H         1 <0>         0.1465
@<TRIPOS>BOND
     1    1    2 1
     2    1   25 1
     3    1   26 1
     4    1   27 1
     5    2    3 1
     6    3    4 2
     7    3    5 1
     8    5    6 2
     9    6   15 1
    10    6    7 1
    11    7    9 1
    12    7    8 1
    13    9   10 ar
    14    9   14 ar
    15   10   11 ar
    16   10   29 1
    17   11   12 ar
    18   11   30 1
    19   12   13 ar
    20   12   16 1
    21   13   14 ar
    22   13   31 1
    23   14   15 1
    24   15   28 1
    25   16   17 2
    26   16   18 1
    27   18   23 ar
    28   18   19 ar
    29   19   20 ar
    30   19   32 1
    31   20   21 ar
    32   20   33 1
    33   21   22 ar
    34   21   24 1
    35   22   23 ar
    36   22   34 1
    37   23   35 1
@<TRIPOS>MOLECULE
ZINC18115268
   33    33     0     0     0
SMALL
USER_CHARGES

@<TRIPOS>ATOM
      1 C1         -0.3642    1.0562   -0.1351 C.3       1 <0>        -0.0806
      2 C2         -0.1563   -0.4363   -0.1547 C.2       1 <0>         0.0012
      3 C3          0.0009   -1.2106   -1.2452 C.2       1 <0>         0.0105
      4 N1          0.1580   -2.4780   -0.8351 N.2       1 <0>        -0.4771
      5 C4          0.1041   -2.5184    0.4682 C.2       1 <0>         0.1895
      6 N2         -0.0849   -1.2645    0.9328 N.pl3     1 <0>        -0.5675
      7 C5          0.0003   -0.7364   -2.6757 C.3       1 <0>         0.0071
      8 S1          1.6924   -0.3113   -3.1724 S.3       1 <0>        -0.2471
      9 C6          1.5206    0.2332   -4.8942 C.3       1 <0>        -0.0839
     10 C7          2.8931    0.6267   -5.4440 C.3       1 <0>         0.0985
     11 N3          2.7544    1.0665   -6.8345 N.2       1 <0>        -0.6299
     12 C8          3.0461    2.2929   -7.1619 C.2       1 <0>         0.6291
     13 N4          3.6056    3.1377   -6.2329 N.pl3     1 <0>        -0.7621
     14 C9          3.8463    4.5426   -6.5715 C.3       1 <0>         0.0619
     15 N5          2.7936    2.7442   -8.4409 N.pl3     1 <0>        -0.5855
     16 C10         3.0971    4.0201   -8.7814 C.1       1 <0>         0.4186
     17 N6          3.3516    5.0898   -9.0669 N.1       1 <0>        -0.4054
     18 H1          0.6027    1.5572   -0.0891 H         1 <0>         0.0793
     19 H2         -0.8891    1.3618   -1.0401 H         1 <0>         0.0821
     20 H3         -0.9567    1.3290    0.7382 H         1 <0>         0.0666
     21 H4          0.1991   -3.4068    1.0748 H         1 <0>         0.2116
     22 H5         -0.3797   -1.5284   -3.3209 H         1 <0>         0.0946
     23 H6         -0.6369    0.1433   -2.7665 H         1 <0>         0.0903
     24 H7          1.1087   -0.5792   -5.4928 H         1 <0>         0.0910
     25 H8          0.8515    1.0926   -4.9385 H         1 <0>         0.0765
     26 H9          3.3050    1.4392   -4.8454 H         1 <0>         0.0411
     27 H10         3.5622   -0.2326   -5.3998 H         1 <0>         0.0883
     28 H11         3.8410    2.8037   -5.3532 H         1 <0>         0.4183
     29 H12         2.9013    5.0217   -6.8277 H         1 <0>         0.0614
     30 H13         4.2915    5.0513   -5.7164 H         1 <0>         0.0835
     31 H14         4.5252    4.6001   -7.4223 H         1 <0>         0.0658
     32 H15         2.3988    2.1481   -9.0964 H         1 <0>         0.4510
     33 H16        -0.1586   -1.0005    1.8632 H         1 <0>         0.4215
@<TRIPOS>BOND
     1    1    2 1
     2    1   18 1
     3    1   19 1
     4    1   20 1
     5    2    6 1
     6    2    3 2
     7    3    4 1
     8    3    7 1
     9    4    5 2
    10    5    6 1
    11    5   21 1
    12    6   33 1
    13    7    8 1
    14    7   22 1
    15    7   23 1
    16    8    9 1
    17    9   10 1
    18    9   24 1
    19    9   25 1
    20   10   11 1
    21   10   26 1
    22   10   27 1
    23   11   12 2
    24   12   13 1
    25   12   15 1
    26   13   14 1
    27   13   28 1
    28   14   29 1
    29   14   30 1
    30   14   31 1
    31   15   16 1
    32   15   32 1
    33   16   17 3
@<TRIPOS>MOLECULE
ZINC00897320
   15    16     0     0     0
SMALL
USER_CHARGES

@<TRIPOS>ATOM
      1 C1         -0.0167    1.3805    0.0096 C.ar      1 <0>        -0.0957
      2 C2          1.1665    2.0937    0.0022 C.ar      1 <0>        -0.0632
      3 C3          2.3785    1.4222   -0.0130 C.ar      1 <0>         0.0407
      4 C4          2.3970    0.0273   -0.0207 C.ar      1 <0>         0.0816
      5 C5          1.2069   -0.6824   -0.0132 C.ar      1 <0>        -0.0938
      6 C6          0.0021   -0.0041    0.0020 C.ar      1 <0>        -0.0176
      7 Cl1        -1.4906   -0.8904    0.0115 Cl        1 <0>        -0.0443
      8 N1          3.7386   -0.3534   -0.0356 N.am      1 <0>        -0.6453
      9 C7          4.4792    0.7726   -0.0366 C.2       1 <0>         0.6409
     10 O1          3.6678    1.8417   -0.0231 O.3       1 <0>        -0.2318
     11 O2          5.6945    0.8137   -0.0480 O.2       1 <0>        -0.4775
     12 H1         -0.9605    1.9052    0.0260 H         1 <0>         0.1556
     13 H2          1.1469    3.1735    0.0078 H         1 <0>         0.1547
     14 H3          1.2203   -1.7623   -0.0188 H         1 <0>         0.1491
     15 H4          4.0769   -1.2624   -0.0434 H         1 <0>         0.4467
@<TRIPOS>BOND
     1    1    6 ar
     2    1    2 ar
     3    1   12 1
     4    2    3 ar
     5    2   13 1
     6    3   10 1
     7    3    4 ar
     8    4    5 ar
     9    4    8 1
    10    5    6 ar
    11    5   14 1
    12    6    7 1
    13    8    9 am
    14    8   15 1
    15    9   10 1
    16    9   11 2
@<TRIPOS>MOLECULE
ZINC00897385
   36    38     0     0     0
SMALL
USER_CHARGES

@<TRIPOS>ATOM
      1 C1         -0.0167    1.3792    0.0096 C.ar      1 <0>        -0.1048
      2 C2          1.1708    2.0869    0.0021 C.ar      1 <0>        -0.0623
      3 C3          2.3773    1.4131   -0.0135 C.ar      1 <0>        -0.0818
      4 C4          2.3974    0.0294   -0.0212 C.ar      1 <0>        -0.0166
      5 C5          1.2096   -0.6792   -0.0132 C.ar      1 <0>        -0.1012
      6 C6          0.0021   -0.0041    0.0020 C.ar      1 <0>        -0.0177
      7 Cl1        -1.4893   -0.8926    0.0121 Cl        1 <0>        -0.0495
      8 Cl2         3.9130   -0.8168   -0.0414 Cl        1 <0>        -0.0503
      9 C7          3.6714    2.1853   -0.0227 C.3       1 <0>         0.1189
     10 H1          4.4087    1.6516   -0.6224 H         1 <0>         0.0890
     11 C8          4.1883    2.3314    1.4099 C.3       1 <0>         0.0884
     12 N1          5.5035    2.9765    1.3911 N.pl3     1 <0>        -0.4626
     13 C9          6.7157    2.3471    1.3014 C.2       1 <0>        -0.0585
     14 C10         7.6569    3.3102    1.3168 C.2       1 <0>        -0.0242
     15 N2          7.0363    4.4953    1.4131 N.2       1 <0>        -0.4866
     16 C11         5.7461    4.3036    1.4530 C.2       1 <0>         0.1882
     17 O1          3.4490    3.4808   -0.5834 O.3       1 <0>        -0.3653
     18 C12         4.5859    4.0259   -1.2561 C.3       1 <0>         0.1057
     19 C13         4.2402    5.3862   -1.8049 C.2       1 <0>        -0.1032
     20 C14         2.9791    5.9204   -1.6147 C.2       1 <0>        -0.1342
     21 C15         2.7012    7.1463   -2.1209 C.2       1 <0>        -0.1663
     22 S1          4.2483    7.5860   -2.8958 S.3       1 <0>         0.0968
     23 C16         5.1632    6.1081   -2.4884 C.2       1 <0>        -0.1205
     24 Cl3         6.8068    5.6998   -2.8700 Cl        1 <0>         0.0236
     25 H2         -0.9592    1.9062    0.0260 H         1 <0>         0.1451
     26 H3          1.1557    3.1667    0.0080 H         1 <0>         0.1515
     27 H4          1.2248   -1.7590   -0.0191 H         1 <0>         0.1490
     28 H5          3.4928    2.9411    1.9867 H         1 <0>         0.1075
     29 H6          4.2735    1.3459    1.8677 H         1 <0>         0.1049
     30 H7          6.8848    1.2827    1.2322 H         1 <0>         0.1729
     31 H8          8.7243    3.1554    1.2612 H         1 <0>         0.1698
     32 H9          4.9966    5.0777    1.5260 H         1 <0>         0.2009
     33 H10         5.4144    4.1173   -0.5537 H         1 <0>         0.0867
     34 H11         4.8745    3.3665   -2.0746 H         1 <0>         0.0640
     35 H12         2.2265    5.3686   -1.0711 H         1 <0>         0.1491
     36 H13         1.7819    7.7107   -2.0695 H         1 <0>         0.1937
@<TRIPOS>BOND
     1    1    6 ar
     2    1    2 ar
     3    1   25 1
     4    2    3 ar
     5    2   26 1
     6    3    4 ar
     7    3    9 1
     8    4    5 ar
     9    4    8 1
    10    5    6 ar
    11    5   27 1
    12    6    7 1
    13    9   10 1
    14    9   11 1
    15    9   17 1
    16   11   12 1
    17   11   28 1
    18   11   29 1
    19   12   16 1
    20   12   13 1
    21   13   14 2
    22   13   30 1
    23   14   15 1
    24   14   31 1
    25   15   16 2
    26   16   32 1
    27   17   18 1
    28   18   19 1
    29   18   33 1
    30   18   34 1
    31   19   23 2
    32   19   20 1
    33   20   21 2
    34   20   35 1
    35   21   22 1
    36   21   36 1
    37   22   23 1
    38   23   24 1
@<TRIPOS>MOLECULE
ZINC08766756
   32    33     0     0     0
SMALL
USER_CHARGES
(5S)-5-ethyl-1-methyl-5-phenyl-hexahydropyrimidine-2,4,6-trione
@<TRIPOS>ATOM
      1 C1         -0.0987    0.0590   -2.4936 C.3       1 <0>        -0.1670
      2 C2         -0.7684   -0.4839   -1.2296 C.3       1 <0>        -0.1125
      3 C3          0.0021   -0.0041    0.0020 C.3       1 <0>        -0.0688
      4 C4         -0.0185    1.5128    0.0104 C.2       1 <0>         0.5494
      5 O1         -1.0635    2.1273    0.0187 O.2       1 <0>        -0.4578
      6 N1          1.1700    2.1529    0.0025 N.am      1 <0>        -0.6836
      7 C5          2.3318    1.4896   -0.0118 C.2       1 <0>         0.7118
      8 O2          3.3545    2.1453   -0.0176 O.2       1 <0>        -0.5227
      9 N2          2.4496    0.1569   -0.0205 N.am      1 <0>        -0.5670
     10 C6          1.3718   -0.6559   -0.0146 C.2       1 <0>         0.5444
     11 O3          1.4940   -1.8620   -0.0218 O.2       1 <0>        -0.4558
     12 C7          3.7882   -0.4380   -0.0365 C.3       1 <0>         0.0705
     13 C8         -0.7336   -0.4897    1.2243 C.ar      1 <0>        -0.0807
     14 C9         -1.8567   -1.2835    1.0851 C.ar      1 <0>        -0.0917
     15 C10        -2.5293   -1.7323    2.2063 C.ar      1 <0>        -0.1131
     16 C11        -2.0835   -1.3804    3.4666 C.ar      1 <0>        -0.1056
     17 C12        -0.9634   -0.5823    3.6057 C.ar      1 <0>        -0.1114
     18 C13        -0.2886   -0.1368    2.4846 C.ar      1 <0>        -0.1117
     19 H1         -0.6527   -0.2860   -3.3791 H         1 <0>         0.0799
     20 H2          0.9379   -0.3054   -2.5447 H         1 <0>         0.0552
     21 H3         -0.0999    1.1586   -2.4657 H         1 <0>         0.0572
     22 H4         -1.8050   -0.1195   -1.1785 H         1 <0>         0.1015
     23 H5         -0.7672   -1.5835   -1.2574 H         1 <0>         0.1006
     24 H6          3.7020   -1.5346   -0.0419 H         1 <0>         0.1044
     25 H7          4.3423   -0.1182    0.8583 H         1 <0>         0.0847
     26 H8          4.3254   -0.1079   -0.9379 H         1 <0>         0.0851
     27 H9         -2.2070   -1.5556    0.1003 H         1 <0>         0.1353
     28 H10        -3.4046   -2.3555    2.0976 H         1 <0>         0.1313
     29 H11        -2.6105   -1.7288    4.3426 H         1 <0>         0.1289
     30 H12        -0.6153   -0.3072    4.5904 H         1 <0>         0.1287
     31 H13         0.5865    0.4867    2.5932 H         1 <0>         0.1138
     32 H14         1.2026    3.2524    0.0078 H         1 <0>         0.4666
@<TRIPOS>BOND
     1    1    2 1
     2    1   19 1
     3    1   20 1
     4    1   21 1
     5    2    3 1
     6    2   22 1
     7    2   23 1
     8    3   10 1
     9    3    4 1
    10    3   13 1
    11    4    5 2
    12    4    6 am
    13    6    7 am
    14    6   32 1
    15    7    8 2
    16    7    9 am
    17    9   10 am
    18    9   12 1
    19   10   11 2
    20   12   24 1
    21   12   25 1
    22   12   26 1
    23   13   18 ar
    24   13   14 ar
    25   14   15 ar
    26   14   27 1
    27   15   16 ar
    28   15   28 1
    29   16   17 ar
    30   16   29 1
    31   17   18 ar
    32   17   30 1
    33   18   31 1
@<TRIPOS>MOLECULE
ZINC13233295
   35    36     0     0     0
SMALL
USER_CHARGES

@<TRIPOS>ATOM
      1 C1         -0.0173    1.4248    0.0099 C.3       1 <0>         0.0329
      2 O1          0.0021   -0.0041    0.0020 O.3       1 <0>        -0.2822
      3 C2         -1.1961   -0.6353    0.0101 C.2       1 <0>         0.4151
      4 C3         -1.2447   -2.0018    0.0088 C.2       1 <0>        -0.2794
      5 C4         -2.5060   -2.6360    0.0173 C.2       1 <0>         0.5631
      6 N1         -3.6390   -1.8434    0.0266 N.pl3     1 <0>        -0.6470
      7 C5         -3.5082   -0.4881    0.0272 C.2       1 <0>         0.6202
      8 N2         -2.3266    0.0823    0.0247 N.2       1 <0>        -0.6212
      9 O2         -4.6149    0.2831    0.0358 O.3       1 <0>        -0.2932
     10 C6         -4.4192    1.6987    0.0360 C.3       1 <0>         0.0447
     11 N3         -2.6011   -3.9500    0.0161 N.2       1 <0>        -0.9899
     12 S1         -4.0913   -4.6723    0.0262 S.o2      1 <0>         2.6189
     13 O3         -4.6876   -4.3557    1.2765 O.2       1 <0>        -0.9896
     14 O4         -4.7063   -4.3519   -1.2141 O.2       1 <0>        -0.9896
     15 C7         -3.8259   -6.4142    0.0215 C.ar      1 <0>        -0.6888
     16 C8         -3.7254   -7.0936   -1.1788 C.ar      1 <0>         0.0307
     17 C9         -3.5174   -8.4588   -1.1860 C.ar      1 <0>        -0.2177
     18 C10        -3.4092   -9.1497    0.0143 C.ar      1 <0>         0.2684
     19 C11        -3.5107   -8.4642    1.2182 C.ar      1 <0>        -0.2178
     20 C12        -3.7130   -7.0980    1.2182 C.ar      1 <0>         0.0307
     21 N4         -3.1993  -10.5306    0.0106 N.pl3     1 <0>        -0.8662
     22 H1          1.0053    1.8021    0.0021 H         1 <0>         0.1055
     23 H2         -0.5445    1.7859   -0.8732 H         1 <0>         0.0654
     24 H3         -0.5275    1.7763    0.9067 H         1 <0>         0.0654
     25 H4         -0.3356   -2.5848    0.0011 H         1 <0>         0.1808
     26 H5         -3.8543    1.9872    0.9224 H         1 <0>         0.0763
     27 H6         -3.8667    1.9892   -0.8575 H         1 <0>         0.0762
     28 H7         -5.3874    2.1993    0.0433 H         1 <0>         0.1172
     29 H8         -3.8099   -6.5559   -2.1116 H         1 <0>         0.1392
     30 H9         -3.4393   -8.9888   -2.1238 H         1 <0>         0.1317
     31 H10        -3.4274   -8.9984    2.1531 H         1 <0>         0.1317
     32 H11        -3.7876   -6.5638    2.1538 H         1 <0>         0.1393
     33 H12        -3.1289  -11.0082   -0.8307 H         1 <0>         0.4033
     34 H13        -3.1239  -11.0119    0.8494 H         1 <0>         0.4033
     35 H14        -4.5198   -2.2496    0.0322 H         1 <0>         0.4222
@<TRIPOS>BOND
     1    1    2 1
     2    1   22 1
     3    1   23 1
     4    1   24 1
     5    2    3 1
     6    3    8 1
     7    3    4 2
     8    4    5 1
     9    4   25 1
    10    5    6 1
    11    5   11 2
    12    6    7 1
    13    6   35 1
    14    7    8 2
    15    7    9 1
    16    9   10 1
    17   10   26 1
    18   10   27 1
    19   10   28 1
    20   11   12 1
    21   12   13 2
    22   12   14 2
    23   12   15 1
    24   15   20 ar
    25   15   16 ar
    26   16   17 ar
    27   16   29 1
    28   17   18 ar
    29   17   30 1
    30   18   19 ar
    31   18   21 1
    32   19   20 ar
    33   19   31 1
    34   20   32 1
    35   21   33 1
    36   21   34 1
@<TRIPOS>MOLECULE
ZINC13540266
   41    43     0     0     0
SMALL
USER_CHARGES

@<TRIPOS>ATOM
      1 C1          4.9582   -0.7763   -2.9226 C.ar      1 <0>        -0.0343
      2 C2          6.1254   -0.2529   -2.3816 C.ar      1 <0>        -0.1419
      3 C3          6.8306   -0.9915   -1.4530 C.ar      1 <0>         0.1451
      4 N1          6.4097   -2.1840   -1.0757 N.ar      1 <0>        -0.5188
      5 C4          5.3024   -2.7172   -1.5681 C.ar      1 <0>         0.3743
      6 C5          4.5421   -2.0283   -2.5079 C.ar      1 <0>        -0.1838
      7 N2          4.8958   -3.9764   -1.1423 N.pl3     1 <0>        -1.0325
      8 S1          5.7953   -4.8027   -0.0240 S.o2      1 <0>         2.6997
      9 O1          5.1148   -6.0259    0.2208 O.2       1 <0>        -0.9653
     10 O2          7.1428   -4.7572   -0.4728 O.2       1 <0>        -0.9343
     11 C6          5.7332   -3.8826    1.4773 C.ar      1 <0>        -0.6544
     12 C7          6.6830   -2.9076    1.7271 C.ar      1 <0>         0.0245
     13 C8          6.6408   -2.1834    2.9000 C.ar      1 <0>        -0.1526
     14 C9          5.6356   -2.4361    3.8373 C.ar      1 <0>         0.0671
     15 C10         4.6798   -3.4221    3.5781 C.ar      1 <0>        -0.1041
     16 C11         4.7315   -4.1345    2.3983 C.ar      1 <0>        -0.0130
     17 N3          5.5876   -1.7224    5.0025 N.2       1 <0>        -0.1925
     18 N4          6.2656   -0.6312    5.1188 N.2       1 <0>        -0.1141
     19 C12         6.4663    0.1674    4.0293 C.ar      1 <0>        -0.0677
     20 C13         7.4733    1.1417    4.0505 C.ar      1 <0>        -0.0411
     21 C14         7.6802    1.9493    2.9556 C.ar      1 <0>        -0.1784
     22 C15         6.8928    1.8051    1.8200 C.ar      1 <0>         0.1822
     23 C16         5.8801    0.8321    1.7862 C.ar      1 <0>        -0.1657
     24 C17         5.6735    0.0096    2.8940 C.ar      1 <0>        -0.0476
     25 C18         5.0439    0.6772    0.5846 C.2       1 <0>         0.5259
     26 O3          4.2329   -0.2363    0.5173 O.co2     1 <0>        -0.6745
     27 O4          5.1599    1.4619   -0.3467 O.co2     1 <0>        -0.6599
     28 O5          7.1014    2.6033    0.7451 O.3       1 <0>        -0.4671
     29 H1          4.3861   -0.2163   -3.6475 H         1 <0>         0.1277
     30 H2          6.4777    0.7220   -2.6846 H         1 <0>         0.1303
     31 H3          7.7389   -0.5884   -1.0300 H         1 <0>         0.1445
     32 H4          3.6392   -2.4654   -2.9081 H         1 <0>         0.1257
     33 H5          7.4595   -2.7137    1.0020 H         1 <0>         0.1524
     34 H6          7.3829   -1.4231    3.0938 H         1 <0>         0.1343
     35 H7          3.9003   -3.6231    4.2982 H         1 <0>         0.1413
     36 H8          3.9907   -4.8935    2.1945 H         1 <0>         0.1432
     37 H9          8.0892    1.2596    4.9298 H         1 <0>         0.1354
     38 H10         8.4576    2.6986    2.9793 H         1 <0>         0.1341
     39 H11         4.8994   -0.7433    2.8735 H         1 <0>         0.1380
     40 H12         7.7371    2.2481    0.1089 H         1 <0>         0.3883
     41 H13         4.0853   -4.3711   -1.5003 H         1 <0>         0.4300
@<TRIPOS>BOND
     1    1    6 ar
     2    1    2 ar
     3    1   29 1
     4    2    3 ar
     5    2   30 1
     6    3    4 ar
     7    3   31 1
     8    4    5 ar
     9    5    6 ar
    10    5    7 1
    11    6   32 1
    12    7    8 1
    13    7   41 1
    14    8    9 2
    15    8   10 2
    16    8   11 1
    17   11   16 ar
    18   11   12 ar
    19   12   13 ar
    20   12   33 1
    21   13   14 ar
    22   13   34 1
    23   14   15 ar
    24   14   17 1
    25   15   16 ar
    26   15   35 1
    27   16   36 1
    28   17   18 2
    29   18   19 1
    30   19   24 ar
    31   19   20 ar
    32   20   21 ar
    33   20   37 1
    34   21   22 ar
    35   21   38 1
    36   22   23 ar
    37   22   28 1
    38   23   24 ar
    39   23   25 1
    40   24   39 1
    41   25   26 2
    42   25   27 1
    43   28   40 1
@<TRIPOS>MOLECULE
ZINC18098320
   66    67     0     0     0
SMALL
USER_CHARGES

@<TRIPOS>ATOM
      1 C1          1.2773    0.6066    1.2415 C.ar      1 <0>        -0.1354
      2 C2          1.7346    1.5098    0.3021 C.ar      1 <0>        -0.0782
      3 C3          2.6926    2.4460    0.6495 C.ar      1 <0>        -0.0207
      4 C4          3.1950    2.4799    1.9385 C.ar      1 <0>        -0.0772
      5 C5          2.7411    1.5790    2.8818 C.ar      1 <0>        -0.0926
      6 C6          1.7794    0.6387    2.5359 C.ar      1 <0>         0.0865
      7 N1          1.3175   -0.2749    3.4898 N.pl3     1 <0>        -0.6027
      8 C7          0.9792   -1.5460    3.1122 C.cat     1 <0>         0.7488
      9 N2          0.4118   -2.3629    3.9793 N.pl3     1 <0>        -0.6335
     10 C8          0.2102   -3.6560    3.6551 C.2       1 <0>         0.6032
     11 N3         -0.7999   -4.3714    4.2660 N.pl3     1 <0>        -0.7006
     12 C9         -1.0189   -5.7764    3.9138 C.3       1 <0>         0.1385
     13 C10        -2.1896   -6.3300    4.7286 C.3       1 <0>        -0.1369
     14 C11        -2.4183   -7.7974    4.3607 C.3       1 <0>        -0.1167
     15 C12        -3.5890   -8.3510    5.1756 C.3       1 <0>        -0.1154
     16 C13        -3.8177   -9.8184    4.8077 C.3       1 <0>        -0.1411
     17 C14        -4.9884  -10.3719    5.6226 C.3       1 <0>         0.1072
     18 N4         -5.2074  -11.7770    5.2703 N.pl3     1 <0>        -0.6312
     19 C15        -6.1661  -12.4559    5.8502 C.cat     1 <0>         0.7155
     20 N5         -6.3725  -13.7798    5.5182 N.pl3     1 <0>        -0.8497
     21 N6         -6.9512  -11.8615    6.7712 N.2       1 <0>        -0.6443
     22 C16        -7.2770  -12.5062    7.8754 C.2       1 <0>         0.7258
     23 N7         -8.1229  -11.9278    8.7805 N.pl3     1 <0>        -0.7872
     24 N8         -6.7683  -13.7538    8.1147 N.pl3     1 <0>        -0.6841
     25 C17        -7.3992  -14.6028    9.0308 C.ar      1 <0>         0.1105
     26 C18        -8.7770  -14.5474    9.1957 C.ar      1 <0>        -0.1398
     27 C19        -9.3972  -15.3865   10.1006 C.ar      1 <0>        -0.0761
     28 C20        -8.6470  -16.2818   10.8425 C.ar      1 <0>        -0.0343
     29 C21        -7.2739  -16.3390   10.6801 C.ar      1 <0>        -0.0767
     30 C22        -6.6493  -15.5062    9.7725 C.ar      1 <0>        -0.1144
     31 Cl1        -9.4296  -17.3346   11.9795 Cl        1 <0>        -0.0380
     32 N9          0.9730   -4.2336    2.7602 N.2       1 <0>        -0.7515
     33 N10         1.2290   -1.9695    1.8365 N.pl3     1 <0>        -0.8107
     34 Cl2         3.2657    3.5795   -0.5339 Cl        1 <0>        -0.0274
     35 H1          0.5266   -0.1212    0.9709 H         1 <0>         0.1449
     36 H2          1.3444    1.4852   -0.7047 H         1 <0>         0.1554
     37 H3          3.9429    3.2113    2.2070 H         1 <0>         0.1573
     38 H4          3.1340    1.6054    3.8875 H         1 <0>         0.1516
     39 H5         -1.2478   -5.8531    2.8508 H         1 <0>         0.0792
     40 H6         -0.1191   -6.3508    4.1341 H         1 <0>         0.0796
     41 H7         -1.9608   -6.2534    5.7916 H         1 <0>         0.0740
     42 H8         -3.0894   -5.7557    4.5083 H         1 <0>         0.0742
     43 H9         -2.6472   -7.8740    3.2978 H         1 <0>         0.0720
     44 H10        -1.5185   -8.3717    4.5810 H         1 <0>         0.0716
     45 H11        -3.3602   -8.2743    6.2386 H         1 <0>         0.0715
     46 H12        -4.4888   -7.7766    4.9553 H         1 <0>         0.0730
     47 H13        -4.0466   -9.8950    3.7447 H         1 <0>         0.0804
     48 H14        -2.9179  -10.3927    5.0280 H         1 <0>         0.0788
     49 H15        -4.7596  -10.2953    6.6855 H         1 <0>         0.0948
     50 H16        -5.8882   -9.7976    5.4023 H         1 <0>         0.1026
     51 H17        -5.7425  -14.2389    4.9410 H         1 <0>         0.4237
     52 H18        -7.1475  -14.2509    5.8622 H         1 <0>         0.4333
     53 H19        -8.6435  -11.1489    8.5289 H         1 <0>         0.4389
     54 H20        -8.2025  -12.2962    9.6743 H         1 <0>         0.4318
     55 H21        -5.9703  -14.0496    7.6492 H         1 <0>         0.4273
     56 H22        -9.3630  -13.8486    8.6171 H         1 <0>         0.1414
     57 H23       -10.4686  -15.3436   10.2295 H         1 <0>         0.1502
     58 H24        -6.6907  -17.0387   11.2604 H         1 <0>         0.1502
     59 H25        -5.5782  -15.5544    9.6428 H         1 <0>         0.1418
     60 H26         1.6822   -3.7306    2.3300 H         1 <0>         0.3592
     61 H27         1.9245   -1.5434    1.3114 H         1 <0>         0.4456
     62 H28         0.7108   -2.6960    1.4564 H         1 <0>         0.4454
     63 H29        -1.3647   -3.9438    4.9287 H         1 <0>         0.4137
     64 H30        -4.6426  -12.2046    4.6077 H         1 <0>         0.4293
     65 H31         0.1398   -2.0331    4.8500 H         1 <0>         0.4405
     66 H32         1.2371   -0.0073    4.4187 H         1 <0>         0.4470
@<TRIPOS>BOND
     1    1    6 ar
     2    1    2 ar
     3    1   35 1
     4    2    3 ar
     5    2   36 1
     6    3    4 ar
     7    3   34 1
     8    4    5 ar
     9    4   37 1
    10    5    6 ar
    11    5   38 1
    12    6    7 1
    13    7    8 1
    14    7   66 1
    15    8    9 2
    16    8   33 1
    17    9   10 1
    18    9   65 1
    19   10   11 1
    20   10   32 2
    21   11   12 1
    22   11   63 1
    23   12   13 1
    24   12   39 1
    25   12   40 1
    26   13   14 1
    27   13   41 1
    28   13   42 1
    29   14   15 1
    30   14   43 1
    31   14   44 1
    32   15   16 1
    33   15   45 1
    34   15   46 1
    35   16   17 1
    36   16   47 1
    37   16   48 1
    38   17   18 1
    39   17   49 1
    40   17   50 1
    41   18   19 2
    42   18   64 1
    43   19   20 1
    44   19   21 1
    45   20   51 1
    46   20   52 1
    47   21   22 2
    48   22   23 1
    49   22   24 1
    50   23   53 1
    51   23   54 1
    52   24   25 1
    53   24   55 1
    54   25   30 ar
    55   25   26 ar
    56   26   27 ar
    57   26   56 1
    58   27   28 ar
    59   27   57 1
    60   28   29 ar
    61   28   31 1
    62   29   30 ar
    63   29   58 1
    64   30   59 1
    65   32   60 1
    66   33   61 1
    67   33   62 1
@<TRIPOS>MOLECULE
ZINC19632883
   17    16     0     0     0
SMALL
USER_CHARGES

@<TRIPOS>ATOM
      1 C1         -0.0187    1.5258    0.0104 C.3       1 <0>        -0.1089
      2 C2          0.0021   -0.0041    0.0020 C.3       1 <0>        -1.0409
      3 O1          0.6932   -0.4774    1.1597 O.3       1 <0>        -0.5552
      4 P1         -1.7082   -0.6351    0.0150 P.3       1 <0>         2.2297
      5 O2         -1.6872   -2.1799    0.0065 O.2       1 <0>        -1.0715
      6 O3         -2.4618   -0.1158    1.3396 O.3       1 <0>        -0.9022
      7 O4         -2.4554   -0.1233   -1.2367 O.3       1 <0>        -1.0689
      8 P2          0.8554   -0.5920   -1.4978 P.3       1 <0>         2.2297
      9 O5          0.8763   -2.1368   -1.5063 O.2       1 <0>        -1.0715
     10 O6          0.1081   -0.0802   -2.7495 O.3       1 <0>        -1.0689
     11 O7          2.3658   -0.0347   -1.5093 O.3       1 <0>        -0.9022
     12 H1          1.0039    1.9031    0.0027 H         1 <0>         0.0403
     13 H2         -0.5459    1.8868   -0.8726 H         1 <0>         0.0832
     14 H3         -0.5289    1.8773    0.9072 H         1 <0>         0.0403
     15 H4          0.7451   -1.4412    1.2202 H         1 <0>         0.3705
     16 H5          2.8803   -0.3088   -2.2808 H         1 <0>         0.3982
     17 H6         -3.3787   -0.4140    1.4129 H         1 <0>         0.3982
@<TRIPOS>BOND
     1    1    2 1
     2    1   12 1
     3    1   13 1
     4    1   14 1
     5    2    3 1
     6    2    4 1
     7    2    8 1
     8    3   15 1
     9    4    5 2
    10    4    6 1
    11    4    7 1
    12    6   17 1
    13    8    9 2
    14    8   10 1
    15    8   11 1
    16   11   16 1
@<TRIPOS>MOLECULE
ZINC00002097
   31    32     0     0     0
SMALL
USER_CHARGES

@<TRIPOS>ATOM
      1 C1         -0.0173    1.4248    0.0099 C.3       1 <0>         0.0388
      2 O1          0.0021   -0.0041    0.0020 O.3       1 <0>        -0.3041
      3 C2         -1.1990   -0.6368    0.0101 C.ar      1 <0>         0.2591
      4 C3         -1.2561   -2.0357    0.0090 C.ar      1 <0>         0.3370
      5 N1         -2.4318   -2.6452    0.0173 N.ar      1 <0>        -0.4501
      6 C4         -3.5471   -1.9313    0.0267 C.ar      1 <0>         0.0574
      7 C5         -3.4898   -0.5534    0.0278 C.ar      1 <0>         0.0569
      8 N2         -2.3190    0.0659    0.0246 N.ar      1 <0>        -0.4678
      9 N3         -0.0820   -2.7828   -0.0013 N.pl3     1 <0>        -1.0245
     10 S1         -0.1533   -4.4373   -0.0026 S.o2      1 <0>         2.6936
     11 O2          1.1892   -4.9016   -0.0411 O.2       1 <0>        -0.9530
     12 O3         -1.0575   -4.8056    1.0298 O.2       1 <0>        -0.9321
     13 C6         -0.8987   -4.9254   -1.5227 C.ar      1 <0>        -0.7292
     14 C7         -2.2721   -5.0648   -1.6041 C.ar      1 <0>         0.0491
     15 C8         -2.8597   -5.4473   -2.7940 C.ar      1 <0>        -0.2248
     16 C9         -2.0694   -5.6920   -3.9098 C.ar      1 <0>         0.2707
     17 C10        -0.6900   -5.5510   -3.8246 C.ar      1 <0>        -0.2220
     18 C11        -0.1095   -5.1627   -2.6332 C.ar      1 <0>         0.0273
     19 N4         -2.6602   -6.0794   -5.1147 N.pl3     1 <0>        -0.8663
     20 H1          1.0053    1.8021    0.0021 H         1 <0>         0.1029
     21 H2         -0.5445    1.7859   -0.8732 H         1 <0>         0.0622
     22 H3         -0.5275    1.7763    0.9067 H         1 <0>         0.0628
     23 H4         -4.5051   -2.4300    0.0332 H         1 <0>         0.1830
     24 H5         -4.4032    0.0229    0.0355 H         1 <0>         0.1786
     25 H6         -2.8859   -4.8748   -0.7360 H         1 <0>         0.1501
     26 H7         -3.9323   -5.5563   -2.8567 H         1 <0>         0.1297
     27 H8         -0.0727   -5.7408   -4.6902 H         1 <0>         0.1297
     28 H9          0.9624   -5.0486   -2.5674 H         1 <0>         0.1382
     29 H10        -3.6235   -6.1778   -5.1729 H         1 <0>         0.4033
     30 H11        -2.1074   -6.2499   -5.8932 H         1 <0>         0.4031
     31 H12         0.7782   -2.3344   -0.0078 H         1 <0>         0.4402
@<TRIPOS>BOND
     1    1    2 1
     2    1   20 1
     3    1   21 1
     4    1   22 1
     5    2    3 1
     6    3    8 ar
     7    3    4 ar
     8    4    5 ar
     9    4    9 1
    10    5    6 ar
    11    6    7 ar
    12    6   23 1
    13    7    8 ar
    14    7   24 1
    15    9   10 1
    16    9   31 1
    17   10   11 2
    18   10   12 2
    19   10   13 1
    20   13   18 ar
    21   13   14 ar
    22   14   15 ar
    23   14   25 1
    24   15   16 ar
    25   15   26 1
    26   16   17 ar
    27   16   19 1
    28   17   18 ar
    29   17   27 1
    30   18   28 1
    31   19   29 1
    32   19   30 1
@<TRIPOS>MOLECULE
ZINC16052277
   56    59     0     0     0
SMALL
USER_CHARGES

@<TRIPOS>ATOM
      1 C1          0.1988    1.9671    0.3459 C.3       1 <0>        -0.1588
      2 C2         -0.1447    0.4804    0.2328 C.3       1 <0>        -0.0480
      3 H1         -1.2174    0.3461    0.3714 H         1 <0>         0.0958
      4 C3          0.2485   -0.0199   -1.1322 C.ar      1 <0>        -0.0193
      5 C4          0.3415    0.8592   -2.1904 C.ar      1 <0>        -0.1411
      6 C5          0.6894    0.4003   -3.4501 C.ar      1 <0>        -0.0710
      7 C6          0.9456   -0.9404   -3.6612 C.ar      1 <0>        -0.1631
      8 C7          0.8624   -1.8377   -2.6066 C.ar      1 <0>         0.1653
      9 C8          0.5173   -1.3747   -1.3309 C.ar      1 <0>        -0.1896
     10 C9          0.4565   -2.3084   -0.1886 C.2       1 <0>         0.4296
     11 O1          0.4567   -3.5124   -0.3717 O.2       1 <0>        -0.4137
     12 C10         0.3980   -1.7753    1.1333 C.2       1 <0>        -0.2277
     13 C11         0.1570   -2.6084    2.1496 C.2       1 <0>         0.1608
     14 C12         0.0842   -2.1815    3.5908 C.3       1 <0>         0.1027
     15 C13         0.7124   -0.7950    3.7362 C.3       1 <0>        -0.1190
     16 H2          1.7793   -0.8840    3.5316 H         1 <0>         0.1071
     17 C14         0.1071    0.1433    2.6959 C.3       1 <0>         0.1255
     18 H3         -0.9805    0.0819    2.7332 H         1 <0>         0.1245
     19 C15         0.6060   -0.2958    1.3126 C.3       1 <0>        -0.0509
     20 H4          1.6701   -0.0724    1.2359 H         1 <0>         0.0970
     21 O2          0.5239    1.4852    2.9557 O.3       1 <0>        -0.5296
     22 C16         0.5455   -0.2483    5.1404 C.3       1 <0>         0.0402
     23 H5          0.8516    0.7977    5.1512 H         1 <0>         0.1555
     24 C17        -0.8706   -0.3455    5.6231 C.2       1 <0>         0.3094
     25 C18        -1.7756   -1.2161    5.0688 C.2       1 <0>        -0.4790
     26 C19        -1.3822   -2.0744    3.9649 C.2       1 <0>         0.3762
     27 O3         -2.2259   -2.6821    3.3386 O.2       1 <0>        -0.4743
     28 C20        -3.1441   -1.2896    5.6048 C.2       1 <0>         0.5867
     29 O4         -3.5002   -0.5142    6.4717 O.2       1 <0>        -0.5486
     30 N1         -4.0029   -2.2161    5.1352 N.am      1 <0>        -0.8690
     31 O5         -1.2667    0.4452    6.6315 O.3       1 <0>        -0.5571
     32 N2          1.4111   -1.0070    6.0530 N.4       1 <0>        -0.3726
     33 C21         2.8124   -0.8537    5.6396 C.3       1 <0>        -0.0498
     34 C22         1.2458   -0.4981    7.4211 C.3       1 <0>        -0.0511
     35 O6          0.7461   -3.1318    4.4279 O.3       1 <0>        -0.5525
     36 O7         -0.0333   -3.9124    1.8663 O.3       1 <0>        -0.4411
     37 O8          1.1129   -3.1555   -2.8100 O.3       1 <0>        -0.4784
     38 H6          1.2813    2.0925    0.3257 H         1 <0>         0.0574
     39 H7         -0.2453    2.5072   -0.4902 H         1 <0>         0.0631
     40 H8         -0.1951    2.3607    1.2830 H         1 <0>         0.0912
     41 H9          0.1419    1.9094   -2.0366 H         1 <0>         0.1381
     42 H10         0.7605    1.0958   -4.2732 H         1 <0>         0.1329
     43 H11         1.2112   -1.2903   -4.6478 H         1 <0>         0.1351
     44 H12         1.4752    1.6277    2.8568 H         1 <0>         0.3748
     45 H13        -3.6965   -2.8856    4.5037 H         1 <0>         0.4004
     46 H14        -4.9274   -2.2134    5.4287 H         1 <0>         0.3871
     47 H15         3.4617   -1.3345    6.3712 H         1 <0>         0.1217
     48 H16         2.9565   -1.3191    4.6645 H         1 <0>         0.1184
     49 H17         3.0586    0.2062    5.5762 H         1 <0>         0.1185
     50 H18         0.2060   -0.6118    7.7279 H         1 <0>         0.1409
     51 H19         1.8881   -1.0610    8.0983 H         1 <0>         0.1133
     52 H20         1.5205    0.5563    7.4522 H         1 <0>         0.1188
     53 H21         0.3716   -4.0223    4.3844 H         1 <0>         0.4064
     54 H22         0.5615   -4.5089    2.3412 H         1 <0>         0.3906
     55 H23         2.0395   -3.4032   -2.6873 H         1 <0>         0.3920
     56 H24         1.1568   -1.9830    6.0242 H         1 <0>         0.4283
@<TRIPOS>BOND
     1    1    2 1
     2    1   38 1
     3    1   39 1
     4    1   40 1
     5    2    3 1
     6    2   19 1
     7    2    4 1
     8    4    9 ar
     9    4    5 ar
    10    5    6 ar
    11    5   41 1
    12    6    7 ar
    13    6   42 1
    14    7    8 ar
    15    7   43 1
    16    8    9 ar
    17    8   37 1
    18    9   10 1
    19   10   11 2
    20   10   12 1
    21   12   19 1
    22   12   13 2
    23   13   14 1
    24   13   36 1
    25   14   26 1
    26   14   15 1
    27   14   35 1
    28   15   16 1
    29   15   17 1
    30   15   22 1
    31   17   18 1
    32   17   19 1
    33   17   21 1
    34   19   20 1
    35   21   44 1
    36   22   23 1
    37   22   24 1
    38   22   32 1
    39   24   25 2
    40   24   31 1
    41   25   26 1
    42   25   28 1
    43   26   27 2
    44   28   29 2
    45   28   30 am
    46   30   45 1
    47   30   46 1
    48   32   33 1
    49   32   34 1
    50   32   56 1
    51   33   47 1
    52   33   48 1
    53   33   49 1
    54   34   50 1
    55   34   51 1
    56   34   52 1
    57   35   53 1
    58   36   54 1
    59   37   55 1
@<TRIPOS>MOLECULE
ZINC19632618
   69    73     0     0     0
SMALL
USER_CHARGES

@<TRIPOS>ATOM
      1 C1         -0.1643    1.5374    0.2772 C.3       1 <0>        -0.1179
      2 C2          0.0708    0.1281   -0.2021 C.ar      1 <0>        -0.1195
      3 C3         -0.6192   -0.3521   -1.2987 C.ar      1 <0>        -0.0803
      4 C4         -0.4070   -1.6434   -1.7410 C.ar      1 <0>        -0.1287
      5 C5          0.5017   -2.4641   -1.0837 C.ar      1 <0>         0.1452
      6 C6          1.1965   -1.9850    0.0175 C.ar      1 <0>        -0.1374
      7 C7          0.9852   -0.6852    0.4558 C.ar      1 <0>         0.1839
      8 N1          1.6874   -0.1967    1.5617 N.pl3     1 <0>        -0.6318
      9 C8          2.1285   -1.0695    2.5429 C.ar      1 <0>         0.5654
     10 N2          1.7764   -2.3456    2.4776 N.ar      1 <0>        -0.5590
     11 C9          2.1776   -3.2107    3.3953 C.ar      1 <0>         0.1907
     12 C10         2.9764   -2.7714    4.4364 C.ar      1 <0>        -0.2695
     13 C11         3.3313   -1.4207    4.4789 C.ar      1 <0>         0.2707
     14 N3          2.8950   -0.6087    3.5185 N.ar      1 <0>        -0.5571
     15 C12         4.1856   -0.9008    5.5740 C.ar      1 <0>        -0.1213
     16 C13         4.4510    0.4679    5.6793 C.ar      1 <0>        -0.0264
     17 C14         5.2541    0.9026    6.7193 C.ar      1 <0>        -0.1772
     18 C15         5.7636   -0.0222    7.6129 C.ar      1 <0>         0.1201
     19 N4          5.4957   -1.3077    7.4879 N.ar      1 <0>        -0.4842
     20 C16         4.7320   -1.7677    6.5181 C.ar      1 <0>         0.1342
     21 N5          0.7153   -3.7716   -1.5315 N.am      1 <0>        -0.6603
     22 C17         0.7404   -4.0356   -2.8529 C.2       1 <0>         0.5491
     23 O1          0.4912   -3.1555   -3.6535 O.2       1 <0>        -0.5015
     24 C18         1.0709   -5.3955   -3.3287 C.ar      1 <0>        -0.0938
     25 C19         1.3519   -6.4100   -2.4119 C.ar      1 <0>        -0.0834
     26 C20         1.6592   -7.6771   -2.8626 C.ar      1 <0>        -0.1009
     27 C21         1.6892   -7.9435   -4.2200 C.ar      1 <0>        -0.1382
     28 C22         1.4117   -6.9425   -5.1341 C.ar      1 <0>        -0.0966
     29 C23         1.0978   -5.6724   -4.6966 C.ar      1 <0>        -0.0538
     30 C24         2.0262   -9.3299   -4.7050 C.3       1 <0>         0.0425
     31 N6          0.7933  -10.1196   -4.8258 N.4       1 <0>        -0.3856
     32 C25         0.1989  -10.3052   -3.4955 C.3       1 <0>        -0.0078
     33 C26        -1.0954  -11.1117   -3.6230 C.3       1 <0>         0.0256
     34 N7         -0.7986  -12.4159   -4.2323 N.3       1 <0>        -0.5431
     35 C27        -0.1799  -12.2456   -5.5546 C.3       1 <0>         0.0239
     36 C28         1.1068  -11.4297   -5.4112 C.3       1 <0>        -0.0024
     37 C29        -2.0090  -13.2436   -4.3201 C.3       1 <0>         0.0192
     38 H1          0.5251    2.2130   -0.2290 H         1 <0>         0.0738
     39 H2         -1.1901    1.8307    0.0540 H         1 <0>         0.0752
     40 H3          0.0021    1.5877    1.3533 H         1 <0>         0.0636
     41 H4         -1.3262    0.2836   -1.8111 H         1 <0>         0.1330
     42 H5         -0.9481   -2.0158   -2.5982 H         1 <0>         0.1345
     43 H6          1.9030   -2.6209    0.5302 H         1 <0>         0.1487
     44 H7          1.8658    0.7534    1.6418 H         1 <0>         0.4265
     45 H8          1.8844   -4.2483    3.3325 H         1 <0>         0.1737
     46 H9          3.3172   -3.4566    5.1985 H         1 <0>         0.1513
     47 H10         4.0401    1.1680    4.9670 H         1 <0>         0.1465
     48 H11         5.4807    1.9525    6.8318 H         1 <0>         0.1439
     49 H12         6.3909    0.3135    8.4254 H         1 <0>         0.1636
     50 H13         4.5316   -2.8268    6.4514 H         1 <0>         0.1618
     51 H14         0.8453   -4.4884   -0.8911 H         1 <0>         0.4091
     52 H15         1.3291   -6.2032   -1.3521 H         1 <0>         0.1399
     53 H16         1.8771   -8.4627   -2.1544 H         1 <0>         0.1405
     54 H17         1.4372   -7.1570   -6.1922 H         1 <0>         0.1409
     55 H18         0.8770   -4.8931   -5.4110 H         1 <0>         0.1513
     56 H19         2.5135   -9.2661   -5.6779 H         1 <0>         0.1411
     57 H20         2.6973   -9.8107   -3.9933 H         1 <0>         0.1402
     58 H21         0.8998  -10.8418   -2.8560 H         1 <0>         0.1385
     59 H22        -0.0212   -9.3320   -3.0568 H         1 <0>         0.1352
     60 H23        -1.5289  -11.2624   -2.6343 H         1 <0>         0.1235
     61 H24        -1.8016  -10.5690   -4.2513 H         1 <0>         0.0601
     62 H25         0.0544  -13.2235   -5.9751 H         1 <0>         0.1247
     63 H26        -0.8711  -11.7216   -6.2147 H         1 <0>         0.0606
     64 H27         1.5598  -11.2902   -6.3927 H         1 <0>         0.1372
     65 H28         1.8030  -11.9606   -4.7619 H         1 <0>         0.1392
     66 H29        -2.7542  -12.7340   -4.9308 H         1 <0>         0.0396
     67 H30        -1.7610  -14.2028   -4.7745 H         1 <0>         0.0842
     68 H31        -2.4099  -13.4082   -3.3199 H         1 <0>         0.0844
     69 H32         0.1396   -9.6332   -5.4209 H         1 <0>         0.4206
@<TRIPOS>BOND
     1    1    2 1
     2    1   38 1
     3    1   39 1
     4    1   40 1
     5    2    7 ar
     6    2    3 ar
     7    3    4 ar
     8    3   41 1
     9    4    5 ar
    10    4   42 1
    11    5    6 ar
    12    5   21 1
    13    6    7 ar
    14    6   43 1
    15    7    8 1
    16    8    9 1
    17    8   44 1
    18    9   14 ar
    19    9   10 ar
    20   10   11 ar
    21   11   12 ar
    22   11   45 1
    23   12   13 ar
    24   12   46 1
    25   13   14 ar
    26   13   15 1
    27   15   20 ar
    28   15   16 ar
    29   16   17 ar
    30   16   47 1
    31   17   18 ar
    32   17   48 1
    33   18   19 ar
    34   18   49 1
    35   19   20 ar
    36   20   50 1
    37   21   22 am
    38   21   51 1
    39   22   23 2
    40   22   24 1
    41   24   29 ar
    42   24   25 ar
    43   25   26 ar
    44   25   52 1
    45   26   27 ar
    46   26   53 1
    47   27   28 ar
    48   27   30 1
    49   28   29 ar
    50   28   54 1
    51   29   55 1
    52   30   31 1
    53   30   56 1
    54   30   57 1
    55   31   36 1
    56   31   32 1
    57   31   69 1
    58   32   33 1
    59   32   58 1
    60   32   59 1
    61   33   34 1
    62   33   60 1
    63   33   61 1
    64   34   35 1
    65   34   37 1
    66   35   36 1
    67   35   62 1
    68   35   63 1
    69   36   64 1
    70   36   65 1
    71   37   66 1
    72   37   67 1
    73   37   68 1
@<TRIPOS>MOLECULE
ZINC19632618
   68    72     0     0     0
SMALL
USER_CHARGES

@<TRIPOS>ATOM
      1 C1         -0.1643    1.5374    0.2772 C.3       1 <0>        -0.1139
      2 C2          0.0708    0.1281   -0.2021 C.ar      1 <0>        -0.1276
      3 C3         -0.6192   -0.3521   -1.2987 C.ar      1 <0>        -0.0809
      4 C4         -0.4070   -1.6434   -1.7410 C.ar      1 <0>        -0.1296
      5 C5          0.5017   -2.4641   -1.0837 C.ar      1 <0>         0.1575
      6 C6          1.1965   -1.9850    0.0175 C.ar      1 <0>        -0.1408
      7 C7          0.9852   -0.6852    0.4558 C.ar      1 <0>         0.1805
      8 N1          1.6874   -0.1967    1.5617 N.pl3     1 <0>        -0.6310
      9 C8          2.1285   -1.0695    2.5429 C.ar      1 <0>         0.5658
     10 N2          1.7764   -2.3456    2.4776 N.ar      1 <0>        -0.5548
     11 C9          2.1776   -3.2107    3.3953 C.ar      1 <0>         0.1930
     12 C10         2.9764   -2.7714    4.4364 C.ar      1 <0>        -0.2707
     13 C11         3.3313   -1.4207    4.4789 C.ar      1 <0>         0.2660
     14 N3          2.8950   -0.6087    3.5185 N.ar      1 <0>        -0.5591
     15 C12         4.1856   -0.9008    5.5740 C.ar      1 <0>        -0.1161
     16 C13         4.4510    0.4679    5.6793 C.ar      1 <0>        -0.0277
     17 C14         5.2541    0.9026    6.7193 C.ar      1 <0>        -0.1780
     18 C15         5.7636   -0.0222    7.6129 C.ar      1 <0>         0.1167
     19 N4          5.4957   -1.3077    7.4879 N.ar      1 <0>        -0.4846
     20 C16         4.7320   -1.7677    6.5181 C.ar      1 <0>         0.1331
     21 N5          0.7153   -3.7716   -1.5315 N.am      1 <0>        -0.6684
     22 C17         0.7404   -4.0356   -2.8529 C.2       1 <0>         0.5607
     23 O1          0.4912   -3.1555   -3.6535 O.2       1 <0>        -0.5149
     24 C18         1.0709   -5.3955   -3.3287 C.ar      1 <0>        -0.1367
     25 C19         1.3519   -6.4100   -2.4119 C.ar      1 <0>        -0.0845
     26 C20         1.6592   -7.6771   -2.8626 C.ar      1 <0>        -0.1214
     27 C21         1.6892   -7.9435   -4.2200 C.ar      1 <0>        -0.0481
     28 C22         1.4117   -6.9425   -5.1341 C.ar      1 <0>        -0.1045
     29 C23         1.0978   -5.6724   -4.6966 C.ar      1 <0>        -0.0549
     30 C24         2.0262   -9.3299   -4.7050 C.3       1 <0>         0.0887
     31 N6          0.7933  -10.1196   -4.8258 N.3       1 <0>        -0.5346
     32 C25         0.1854  -10.3517   -3.5082 C.3       1 <0>         0.0528
     33 C26        -1.1341  -11.1069   -3.6840 C.3       1 <0>         0.0560
     34 N7         -0.8794  -12.3787   -4.3748 N.3       1 <0>        -0.5467
     35 C27        -0.2715  -12.1466   -5.6924 C.3       1 <0>         0.0557
     36 C28         1.0481  -11.3914   -5.5165 C.3       1 <0>         0.0569
     37 C29        -2.1122  -13.1683   -4.4955 C.3       1 <0>         0.0243
     38 H1          0.5251    2.2130   -0.2290 H         1 <0>         0.0707
     39 H2         -1.1901    1.8307    0.0540 H         1 <0>         0.0727
     40 H3          0.0021    1.5877    1.3533 H         1 <0>         0.0612
     41 H4         -1.3262    0.2836   -1.8111 H         1 <0>         0.1306
     42 H5         -0.9481   -2.0158   -2.5982 H         1 <0>         0.1361
     43 H6          1.9030   -2.6209    0.5302 H         1 <0>         0.1478
     44 H7          1.8658    0.7534    1.6418 H         1 <0>         0.4247
     45 H8          1.8844   -4.2483    3.3325 H         1 <0>         0.1749
     46 H9          3.3172   -3.4566    5.1985 H         1 <0>         0.1504
     47 H10         4.0401    1.1680    4.9670 H         1 <0>         0.1465
     48 H11         5.4807    1.9525    6.8318 H         1 <0>         0.1424
     49 H12         6.3909    0.3135    8.4254 H         1 <0>         0.1620
     50 H13         4.5316   -2.8268    6.4514 H         1 <0>         0.1624
     51 H14         0.8453   -4.4884   -0.8911 H         1 <0>         0.4098
     52 H15         1.3291   -6.2032   -1.3521 H         1 <0>         0.1256
     53 H16         1.8771   -8.4627   -2.1544 H         1 <0>         0.1277
     54 H17         1.4372   -7.1570   -6.1922 H         1 <0>         0.1323
     55 H18         0.8770   -4.8931   -5.4110 H         1 <0>         0.1380
     56 H19         2.5135   -9.2661   -5.6779 H         1 <0>         0.0885
     57 H20         2.6973   -9.8107   -3.9933 H         1 <0>         0.0490
     58 H21         0.8640  -10.9435   -2.8938 H         1 <0>         0.0436
     59 H22        -0.0051   -9.3950   -3.0219 H         1 <0>         0.0840
     60 H23        -1.5725  -11.3056   -2.7060 H         1 <0>         0.0799
     61 H24        -1.8225  -10.5033   -4.2756 H         1 <0>         0.0432
     62 H25        -0.0810  -13.1033   -6.1787 H         1 <0>         0.0811
     63 H26        -0.9501  -11.5548   -6.3068 H         1 <0>         0.0437
     64 H27         1.4864  -11.1926   -6.4945 H         1 <0>         0.0821
     65 H28         1.7364  -11.9950   -4.9250 H         1 <0>         0.0450
     66 H29        -2.8511  -12.6037   -5.0641 H         1 <0>         0.0271
     67 H30        -1.8953  -14.1043   -5.0104 H         1 <0>         0.0693
     68 H31        -2.5051  -13.3830   -3.5017 H         1 <0>         0.0693
@<TRIPOS>BOND
     1    1    2 1
     2    1   38 1
     3    1   39 1
     4    1   40 1
     5    2    7 ar
     6    2    3 ar
     7    3    4 ar
     8    3   41 1
     9    4    5 ar
    10    4   42 1
    11    5    6 ar
    12    5   21 1
    13    6    7 ar
    14    6   43 1
    15    7    8 1
    16    8    9 1
    17    8   44 1
    18    9   14 ar
    19    9   10 ar
    20   10   11 ar
    21   11   12 ar
    22   11   45 1
    23   12   13 ar
    24   12   46 1
    25   13   14 ar
    26   13   15 1
    27   15   20 ar
    28   15   16 ar
    29   16   17 ar
    30   16   47 1
    31   17   18 ar
    32   17   48 1
    33   18   19 ar
    34   18   49 1
    35   19   20 ar
    36   20   50 1
    37   21   22 am
    38   21   51 1
    39   22   23 2
    40   22   24 1
    41   24   29 ar
    42   24   25 ar
    43   25   26 ar
    44   25   52 1
    45   26   27 ar
    46   26   53 1
    47   27   28 ar
    48   27   30 1
    49   28   29 ar
    50   28   54 1
    51   29   55 1
    52   30   31 1
    53   30   56 1
    54   30   57 1
    55   31   36 1
    56   31   32 1
    57   32   33 1
    58   32   58 1
    59   32   59 1
    60   33   34 1
    61   33   60 1
    62   33   61 1
    63   34   35 1
    64   34   37 1
    65   35   36 1
    66   35   62 1
    67   35   63 1
    68   36   64 1
    69   36   65 1
    70   37   66 1
    71   37   67 1
    72   37   68 1
@<TRIPOS>MOLECULE
ZINC13523533
   49    51     0     0     0
SMALL
USER_CHARGES

@<TRIPOS>ATOM
      1 C1         -0.4494    1.6424    0.1399 C.2       1 <0>         0.0095
      2 C2          0.8411    1.9737   -0.0563 C.2       1 <0>         0.0760
      3 N1          1.5155    0.8090   -0.3057 N.pl3     1 <0>        -0.5034
      4 H1          2.4644    0.7207   -0.4864 H         1 <0>         0.4622
      5 C3          0.6130   -0.1942   -0.2531 C.cat     1 <0>         0.3142
      6 N2         -0.5599    0.3117    0.0138 N.pl3     1 <0>        -0.4660
      7 C4          1.4295    3.3604   -0.0106 C.3       1 <0>        -0.0705
      8 C5          1.7683    3.7232    1.4366 C.3       1 <0>         0.1382
      9 H2          2.4290    2.9645    1.8563 H         1 <0>         0.1164
     10 C6          2.4568    5.0633    1.4706 C.2       1 <0>         0.5369
     11 O1          1.8062    6.0757    1.6208 O.2       1 <0>        -0.5050
     12 N3          3.7957    5.1367    1.3340 N.am      1 <0>        -0.5968
     13 C7          4.6928    4.0042    1.0408 C.3       1 <0>         0.0925
     14 C8          5.9411    4.6464    0.3858 C.3       1 <0>        -0.1315
     15 C9          6.0725    5.9652    1.1925 C.3       1 <0>        -0.1270
     16 C10         4.6026    6.3605    1.4464 C.3       1 <0>         0.1175
     17 H3          4.2785    7.0879    0.7021 H         1 <0>         0.1114
     18 C11         4.4626    6.9415    2.8299 C.2       1 <0>         0.5109
     19 O2          3.7579    6.3919    3.6499 O.2       1 <0>        -0.5290
     20 N4          5.1204    8.0717    3.1559 N.am      1 <0>        -0.8492
     21 N5          0.5355    3.7874    2.2254 N.am      1 <0>        -0.7084
     22 C12         0.0205    2.6642    2.7636 C.2       1 <0>         0.5071
     23 O3          0.5777    1.6003    2.5950 O.2       1 <0>        -0.5323
     24 C13        -1.2477    2.7304    3.5750 C.3       1 <0>         0.1146
     25 H4         -1.9584    3.4124    3.1082 H         1 <0>         0.1196
     26 C14        -0.9363    3.1877    5.0173 C.3       1 <0>        -0.1222
     27 C15        -0.7740    1.8351    5.7488 C.3       1 <0>        -0.1589
     28 C16        -1.5812    0.8637    4.9161 C.2       1 <0>         0.5298
     29 O4         -1.9454   -0.2324    5.2858 O.2       1 <0>        -0.5148
     30 N6         -1.8377    1.3929    3.7051 N.am      1 <0>        -0.7165
     31 H5         -1.2535    2.3277    0.3642 H         1 <0>         0.2126
     32 H6          0.8266   -1.2417   -0.4066 H         1 <0>         0.2643
     33 H7          2.3364    3.3903   -0.6145 H         1 <0>         0.1122
     34 H8          0.7069    4.0749   -0.4046 H         1 <0>         0.1263
     35 H9          4.9694    3.4910    1.9618 H         1 <0>         0.0794
     36 H10         4.2151    3.3112    0.3482 H         1 <0>         0.0757
     37 H11         6.8205    4.0167    0.5204 H         1 <0>         0.0969
     38 H12         5.7666    4.8504   -0.6707 H         1 <0>         0.0864
     39 H13         6.5969    5.7918    2.1322 H         1 <0>         0.0877
     40 H14         6.5785    6.7294    0.6025 H         1 <0>         0.1012
     41 H15         5.6840    8.5112    2.5001 H         1 <0>         0.4038
     42 H16         5.0303    8.4456    4.0464 H         1 <0>         0.4081
     43 H17         0.0898    4.6384    2.3603 H         1 <0>         0.4213
     44 H18        -0.0117    3.7638    5.0528 H         1 <0>         0.0985
     45 H19        -1.7663    3.7589    5.4332 H         1 <0>         0.1054
     46 H20         0.2744    1.5376    5.7726 H         1 <0>         0.1083
     47 H21        -1.1768    1.8973    6.7598 H         1 <0>         0.1137
     48 H22        -2.3464    0.9490    3.0086 H         1 <0>         0.4080
     49 H23        -1.3819   -0.1948    0.1068 H         1 <0>         0.4649
@<TRIPOS>BOND
     1    1    6 1
     2    1    2 2
     3    1   31 1
     4    2    3 1
     5    2    7 1
     6    3    4 1
     7    3    5 1
     8    5    6 2
     9    5   32 1
    10    6   49 1
    11    7    8 1
    12    7   33 1
    13    7   34 1
    14    8    9 1
    15    8   10 1
    16    8   21 1
    17   10   11 2
    18   10   12 am
    19   12   16 1
    20   12   13 1
    21   13   14 1
    22   13   35 1
    23   13   36 1
    24   14   15 1
    25   14   37 1
    26   14   38 1
    27   15   16 1
    28   15   39 1
    29   15   40 1
    30   16   17 1
    31   16   18 1
    32   18   19 2
    33   18   20 am
    34   20   41 1
    35   20   42 1
    36   21   22 am
    37   21   43 1
    38   22   23 2
    39   22   24 1
    40   24   25 1
    41   24   30 1
    42   24   26 1
    43   26   27 1
    44   26   44 1
    45   26   45 1
    46   27   28 1
    47   27   46 1
    48   27   47 1
    49   28   29 2
    50   28   30 am
    51   30   48 1
@<TRIPOS>MOLECULE
ZINC13523529
   49    51     0     0     0
SMALL
USER_CHARGES

@<TRIPOS>ATOM
      1 C1         -0.0161    1.3371    0.0094 C.2       1 <0>         0.0218
      2 C2          1.2587    1.7711   -0.0004 C.2       1 <0>         0.0732
      3 N1          2.0558    0.6583   -0.0140 N.pl3     1 <0>        -0.5116
      4 H1          3.0256    0.6452   -0.0234 H         1 <0>         0.4569
      5 C3          1.2397   -0.4176   -0.0120 C.cat     1 <0>         0.3039
      6 N2          0.0021   -0.0041    0.0020 N.pl3     1 <0>        -0.4615
      7 C4          1.7192    3.2060    0.0024 C.3       1 <0>        -0.0780
      8 C5          1.7689    3.7228    1.4416 C.3       1 <0>         0.1375
      9 H2          0.7973    3.5772    1.9137 H         1 <0>         0.1268
     10 C6          2.1101    5.1906    1.4368 C.2       1 <0>         0.5348
     11 O1          3.1085    5.5830    2.0027 O.2       1 <0>        -0.5035
     12 N3          1.3059    6.0674    0.8036 N.am      1 <0>        -0.5970
     13 C7          0.0638    5.7297    0.0849 C.3       1 <0>         0.0870
     14 C8         -0.7685    7.0361    0.0960 C.3       1 <0>        -0.1321
     15 C9          0.3369    8.1112   -0.0764 C.3       1 <0>        -0.1268
     16 C10         1.5185    7.5198    0.7207 C.3       1 <0>         0.1172
     17 H3          1.5439    7.9485    1.7225 H         1 <0>         0.1100
     18 C11         2.8123    7.8082    0.0038 C.2       1 <0>         0.5132
     19 O2          3.4975    6.8936   -0.4024 O.2       1 <0>        -0.5307
     20 N4          3.2080    9.0825   -0.1860 N.am      1 <0>        -0.8496
     21 N5          2.7906    2.9863    2.1899 N.am      1 <0>        -0.7100
     22 C12         2.4862    1.8044    2.7617 C.2       1 <0>         0.5018
     23 O3          1.3665    1.3505    2.6567 O.2       1 <0>        -0.5273
     24 C13         3.5373    1.0469    3.5314 C.3       1 <0>         0.1115
     25 H4          4.1337    1.7344    4.1312 H         1 <0>         0.1244
     26 C14         4.4449    0.2577    2.5620 C.3       1 <0>        -0.1229
     27 C15         3.7518   -1.1243    2.5358 C.3       1 <0>        -0.1577
     28 C16         3.0091   -1.1919    3.8520 C.2       1 <0>         0.5237
     29 O4          2.5691   -2.2065    4.3500 O.2       1 <0>        -0.5109
     30 N6          2.9082    0.0374    4.3912 N.am      1 <0>        -0.7081
     31 H5         -0.8984    1.9597    0.0252 H         1 <0>         0.2209
     32 H6          1.5585   -1.4495   -0.0206 H         1 <0>         0.2617
     33 H7          2.7129    3.2695   -0.4410 H         1 <0>         0.1110
     34 H8          1.0231    3.8121   -0.5774 H         1 <0>         0.1307
     35 H9          0.2873    5.4310   -0.9393 H         1 <0>         0.0802
     36 H10        -0.4711    4.9347    0.6046 H         1 <0>         0.0845
     37 H11        -1.4698    7.0597   -0.7381 H         1 <0>         0.0973
     38 H12        -1.2890    7.1598    1.0456 H         1 <0>         0.0874
     39 H13         0.5978    8.2309   -1.1279 H         1 <0>         0.0877
     40 H14         0.0213    9.0614    0.3544 H         1 <0>         0.1006
     41 H15         2.6600    9.8140    0.1389 H         1 <0>         0.4041
     42 H16         4.0408    9.2681   -0.6474 H         1 <0>         0.4077
     43 H17         3.6862    3.3494    2.2739 H         1 <0>         0.4208
     44 H18         4.4461    0.7123    1.5714 H         1 <0>         0.0831
     45 H19         5.4587    0.1782    2.9543 H         1 <0>         0.1137
     46 H20         3.0541   -1.1854    1.7006 H         1 <0>         0.0857
     47 H21         4.4926   -1.9215    2.4744 H         1 <0>         0.1193
     48 H22         2.4765    0.2318    5.2378 H         1 <0>         0.4211
     49 H23        -0.7811   -0.5763    0.0069 H         1 <0>         0.4666
@<TRIPOS>BOND
     1    1    6 1
     2    1    2 2
     3    1   31 1
     4    2    3 1
     5    2    7 1
     6    3    4 1
     7    3    5 1
     8    5    6 2
     9    5   32 1
    10    6   49 1
    11    7    8 1
    12    7   33 1
    13    7   34 1
    14    8    9 1
    15    8   10 1
    16    8   21 1
    17   10   11 2
    18   10   12 am
    19   12   16 1
    20   12   13 1
    21   13   14 1
    22   13   35 1
    23   13   36 1
    24   14   15 1
    25   14   37 1
    26   14   38 1
    27   15   16 1
    28   15   39 1
    29   15   40 1
    30   16   17 1
    31   16   18 1
    32   18   19 2
    33   18   20 am
    34   20   41 1
    35   20   42 1
    36   21   22 am
    37   21   43 1
    38   22   23 2
    39   22   24 1
    40   24   25 1
    41   24   30 1
    42   24   26 1
    43   26   27 1
    44   26   44 1
    45   26   45 1
    46   27   28 1
    47   27   46 1
    48   27   47 1
    49   28   29 2
    50   28   30 am
    51   30   48 1
@<TRIPOS>MOLECULE
ZINC13523524
   49    51     0     0     0
SMALL
USER_CHARGES

@<TRIPOS>ATOM
      1 C1         -0.0161    1.3371    0.0094 C.2       1 <0>         0.0233
      2 C2          1.2587    1.7711   -0.0004 C.2       1 <0>         0.0716
      3 N1          2.0558    0.6583   -0.0140 N.pl3     1 <0>        -0.5117
      4 H1          3.0256    0.6452   -0.0234 H         1 <0>         0.4567
      5 C3          1.2397   -0.4176   -0.0120 C.cat     1 <0>         0.3046
      6 N2          0.0021   -0.0041    0.0020 N.pl3     1 <0>        -0.4615
      7 C4          1.7192    3.2060    0.0024 C.3       1 <0>        -0.0787
      8 C5          1.7689    3.7228    1.4416 C.3       1 <0>         0.1365
      9 H2          0.7973    3.5772    1.9137 H         1 <0>         0.1274
     10 C6          2.1101    5.1906    1.4368 C.2       1 <0>         0.5348
     11 O1          3.1085    5.5830    2.0027 O.2       1 <0>        -0.5018
     12 N3          1.3059    6.0674    0.8036 N.am      1 <0>        -0.5977
     13 C7          0.0638    5.7297    0.0849 C.3       1 <0>         0.0887
     14 C8         -0.7685    7.0361    0.0960 C.3       1 <0>        -0.1355
     15 C9          0.3369    8.1112   -0.0764 C.3       1 <0>        -0.1268
     16 C10         1.5185    7.5198    0.7207 C.3       1 <0>         0.1175
     17 H3          2.4543    7.7284    0.2022 H         1 <0>         0.1105
     18 C11         1.5536    8.1125    2.1058 C.2       1 <0>         0.5099
     19 O2          1.4149    7.3971    3.0752 O.2       1 <0>        -0.5244
     20 N4          1.7390    9.4377    2.2671 N.am      1 <0>        -0.8516
     21 N5          2.7906    2.9863    2.1899 N.am      1 <0>        -0.7096
     22 C12         2.4862    1.8044    2.7617 C.2       1 <0>         0.5022
     23 O3          1.3665    1.3505    2.6567 O.2       1 <0>        -0.5266
     24 C13         3.5373    1.0469    3.5314 C.3       1 <0>         0.1112
     25 H4          4.1337    1.7344    4.1312 H         1 <0>         0.1245
     26 C14         4.4449    0.2577    2.5620 C.3       1 <0>        -0.1222
     27 C15         3.7518   -1.1243    2.5358 C.3       1 <0>        -0.1575
     28 C16         3.0091   -1.1919    3.8520 C.2       1 <0>         0.5234
     29 O4          2.5691   -2.2065    4.3500 O.2       1 <0>        -0.5110
     30 N6          2.9082    0.0374    4.3912 N.am      1 <0>        -0.7079
     31 H5         -0.8984    1.9597    0.0252 H         1 <0>         0.2210
     32 H6          1.5585   -1.4495   -0.0206 H         1 <0>         0.2618
     33 H7          2.7129    3.2695   -0.4410 H         1 <0>         0.1092
     34 H8          1.0231    3.8121   -0.5774 H         1 <0>         0.1316
     35 H9          0.2873    5.4310   -0.9393 H         1 <0>         0.0835
     36 H10        -0.4711    4.9347    0.6046 H         1 <0>         0.0819
     37 H11        -1.4698    7.0597   -0.7381 H         1 <0>         0.0983
     38 H12        -1.2890    7.1598    1.0456 H         1 <0>         0.0834
     39 H13         0.5978    8.2309   -1.1279 H         1 <0>         0.0972
     40 H14         0.0213    9.0614    0.3544 H         1 <0>         0.0937
     41 H15         1.8498   10.0099    1.4918 H         1 <0>         0.4031
     42 H16         1.7615    9.8192    3.1587 H         1 <0>         0.4078
     43 H17         3.6862    3.3494    2.2739 H         1 <0>         0.4198
     44 H18         4.4461    0.7123    1.5714 H         1 <0>         0.0827
     45 H19         5.4587    0.1782    2.9543 H         1 <0>         0.1135
     46 H20         3.0541   -1.1854    1.7006 H         1 <0>         0.0855
     47 H21         4.4926   -1.9215    2.4744 H         1 <0>         0.1192
     48 H22         2.4765    0.2318    5.2378 H         1 <0>         0.4215
     49 H23        -0.7811   -0.5763    0.0069 H         1 <0>         0.4669
@<TRIPOS>BOND
     1    1    6 1
     2    1    2 2
     3    1   31 1
     4    2    3 1
     5    2    7 1
     6    3    4 1
     7    3    5 1
     8    5    6 2
     9    5   32 1
    10    6   49 1
    11    7    8 1
    12    7   33 1
    13    7   34 1
    14    8    9 1
    15    8   10 1
    16    8   21 1
    17   10   11 2
    18   10   12 am
    19   12   16 1
    20   12   13 1
    21   13   14 1
    22   13   35 1
    23   13   36 1
    24   14   15 1
    25   14   37 1
    26   14   38 1
    27   15   16 1
    28   15   39 1
    29   15   40 1
    30   16   17 1
    31   16   18 1
    32   18   19 2
    33   18   20 am
    34   20   41 1
    35   20   42 1
    36   21   22 am
    37   21   43 1
    38   22   23 2
    39   22   24 1
    40   24   25 1
    41   24   30 1
    42   24   26 1
    43   26   27 1
    44   26   44 1
    45   26   45 1
    46   27   28 1
    47   27   46 1
    48   27   47 1
    49   28   29 2
    50   28   30 am
    51   30   48 1
@<TRIPOS>MOLECULE
ZINC03782550
   17    16     0     0     0
SMALL
USER_CHARGES

@<TRIPOS>ATOM
      1 C1         -0.0187    1.5258    0.0104 C.3       1 <0>        -0.1425
      2 C2          0.0021   -0.0041    0.0020 C.3       1 <0>        -0.1739
      3 C3         -1.4117   -0.5257    0.0127 C.2       1 <0>         0.4898
      4 O1         -2.3491    0.2539    0.0259 O.co2     1 <0>        -0.7014
      5 O2         -1.6182   -1.7273    0.0082 O.co2     1 <0>        -0.7032
      6 C4          1.3951    2.0474   -0.0003 C.2       1 <0>         0.3471
      7 O3          2.3235    1.2752   -0.0133 O.2       1 <0>        -0.4484
      8 C5          1.6504    3.5326    0.0053 C.3       1 <0>         0.0083
      9 N1          3.0982    3.7807   -0.0072 N.3       1 <0>        -0.8417
     10 H1         -0.5459    1.8868   -0.8726 H         1 <0>         0.0964
     11 H2         -0.5289    1.8773    0.9072 H         1 <0>         0.0949
     12 H3          0.5123   -0.3556   -0.8948 H         1 <0>         0.0619
     13 H4          0.5293   -0.3651    0.8851 H         1 <0>         0.0606
     14 H5          1.1970    3.9825   -0.8780 H         1 <0>         0.1045
     15 H6          1.2140    3.9729    0.9018 H         1 <0>         0.0598
     16 H7          3.2956    4.7702   -0.0038 H         1 <0>         0.3416
     17 H8          3.5509    3.3190    0.7674 H         1 <0>         0.3463
@<TRIPOS>BOND
     1    1    2 1
     2    1    6 1
     3    1   10 1
     4    1   11 1
     5    2    3 1
     6    2   12 1
     7    2   13 1
     8    3    4 2
     9    3    5 1
    10    6    7 2
    11    6    8 1
    12    8    9 1
    13    8   14 1
    14    8   15 1
    15    9   16 1
    16    9   17 1
@<TRIPOS>MOLECULE
ZINC38197764
   50    53     0     0     0
SMALL
USER_CHARGES

@<TRIPOS>ATOM
      1 C1          0.0386    1.3298    0.2361 C.3       1 <0>        -0.1813
      2 C2          0.0623   -0.1987    0.1732 C.3       1 <0>         0.0090
      3 H1         -0.9592   -0.5788    0.1808 H         1 <0>         0.1425
      4 C3          0.7644   -0.6463   -1.1131 C.3       1 <0>         0.1280
      5 N1          0.8914   -2.1117   -1.0894 N.pl3     1 <0>        -0.6678
      6 C4          1.4624   -2.7387    0.1127 C.3       1 <0>         0.1147
      7 C5          0.7273   -2.1923    1.3411 C.3       1 <0>        -0.0228
      8 N2          0.7893   -0.7253    1.3352 N.4       1 <0>        -0.5012
      9 C6          0.4813   -2.8856   -2.1768 C.ar      1 <0>         0.1560
     10 C7         -0.8326   -3.3530   -2.2379 C.ar      1 <0>         0.0795
     11 C8         -1.2474   -4.1115   -3.2965 C.ar      1 <0>        -0.0600
     12 C9         -0.3526   -4.4214   -4.3238 C.ar      1 <0>        -0.1373
     13 C10         0.9740   -3.9568   -4.2744 C.ar      1 <0>         0.1716
     14 C11         1.3819   -3.1796   -3.1919 C.ar      1 <0>         0.0847
     15 O1          2.6594   -2.7149   -3.1275 O.3       1 <0>        -0.3129
     16 C12         3.6212   -3.5488   -2.4781 C.3       1 <0>         0.0148
     17 N3          1.8577   -4.2637   -5.2894 N.pl3     1 <0>        -0.4460
     18 C13         1.5124   -5.0017   -6.3519 C.2       1 <0>         0.2455
     19 C14         0.2399   -5.5124   -6.5097 C.2       1 <0>        -0.3202
     20 C15        -0.7715   -5.2369   -5.4760 C.2       1 <0>         0.4290
     21 O2         -1.9087   -5.6654   -5.5705 O.2       1 <0>        -0.4348
     22 C16        -0.1001   -6.3176   -7.6908 C.2       1 <0>         0.5479
     23 O3          0.7426   -6.5388   -8.5387 O.2       1 <0>        -0.5283
     24 O4         -1.3464   -6.8112   -7.8341 O.3       1 <0>        -0.4810
     25 C17         3.2307   -3.7606   -5.2006 C.3       1 <0>         0.0132
     26 C18         4.1789   -4.0873   -6.3560 C.3       1 <0>        -0.1762
     27 C19         4.3482   -4.7874   -5.0062 C.3       1 <0>        -0.1836
     28 F1         -1.6987   -3.0544   -1.2451 F         1 <0>        -0.1275
     29 H2          1.0602    1.7097    0.2285 H         1 <0>         0.0835
     30 H3         -0.5008    1.7206   -0.6268 H         1 <0>         0.1085
     31 H4         -0.4606    1.6480    1.1513 H         1 <0>         0.0862
     32 H5          0.1731   -0.3439   -1.9774 H         1 <0>         0.1163
     33 H6          1.7545   -0.1937   -1.1665 H         1 <0>         0.0871
     34 H7          1.3325   -3.8196    0.0589 H         1 <0>         0.1157
     35 H8          2.5230   -2.4973    0.1831 H         1 <0>         0.0847
     36 H9         -0.3143   -2.5122    1.3135 H         1 <0>         0.1355
     37 H10         1.2004   -2.5724    2.2466 H         1 <0>         0.1429
     38 H11         1.7532   -0.4309    1.2891 H         1 <0>         0.4251
     39 H12        -2.2650   -4.4709   -3.3387 H         1 <0>         0.1659
     40 H13         4.5960   -3.0615   -2.4963 H         1 <0>         0.1052
     41 H14         3.3180   -3.7163   -1.4446 H         1 <0>         0.0472
     42 H15         3.6831   -4.5048   -2.9981 H         1 <0>         0.0661
     43 H16         2.2540   -5.2037   -7.1106 H         1 <0>         0.1874
     44 H17         3.3461   -2.7927   -4.7128 H         1 <0>         0.1869
     45 H18         3.7812   -4.6767   -7.1822 H         1 <0>         0.1104
     46 H19         4.9183   -3.3343   -6.6287 H         1 <0>         0.1234
     47 H20         5.1989   -4.4949   -4.3907 H         1 <0>         0.1177
     48 H21         4.0618   -5.8373   -4.9443 H         1 <0>         0.1065
     49 H22         0.3714   -0.3688    2.1816 H         1 <0>         0.4307
     50 H23        -1.4745   -7.3275   -8.6416 H         1 <0>         0.4114
@<TRIPOS>BOND
     1    1    2 1
     2    1   29 1
     3    1   30 1
     4    1   31 1
     5    2    3 1
     6    2    8 1
     7    2    4 1
     8    4    5 1
     9    4   32 1
    10    4   33 1
    11    5    6 1
    12    5    9 1
    13    6    7 1
    14    6   34 1
    15    6   35 1
    16    7    8 1
    17    7   36 1
    18    7   37 1
    19    8   38 1
    20    8   49 1
    21    9   14 ar
    22    9   10 ar
    23   10   11 ar
    24   10   28 1
    25   11   12 ar
    26   11   39 1
    27   12   20 1
    28   12   13 ar
    29   13   14 ar
    30   13   17 1
    31   14   15 1
    32   15   16 1
    33   16   40 1
    34   16   41 1
    35   16   42 1
    36   17   18 1
    37   17   25 1
    38   18   19 2
    39   18   43 1
    40   19   20 1
    41   19   22 1
    42   20   21 2
    43   22   23 2
    44   22   24 1
    45   24   50 1
    46   25   27 1
    47   25   26 1
    48   25   44 1
    49   26   27 1
    50   26   45 1
    51   26   46 1
    52   27   47 1
    53   27   48 1
@<TRIPOS>MOLECULE
ZINC00003876
   45    47     0     0     0
SMALL
USER_CHARGES

@<TRIPOS>ATOM
      1 C1         -0.0184    1.5028    0.0103 C.3       1 <0>        -0.1298
      2 C2          0.0021   -0.0041    0.0020 C.ar      1 <0>        -0.0415
      3 C3          0.0057   -0.6865   -1.2011 C.ar      1 <0>        -0.1156
      4 C4          0.0244   -2.0665   -1.2146 C.ar      1 <0>        -0.0824
      5 C5          0.0401   -2.7722   -0.0132 C.ar      1 <0>        -0.0858
      6 C6          0.0368   -2.0796    1.1958 C.ar      1 <0>        -0.0737
      7 C7          0.0229   -0.6995    1.1975 C.ar      1 <0>        -0.1157
      8 C8          0.0597   -4.2561   -0.0214 C.2       1 <0>         0.1702
      9 C9         -0.7101   -5.0684    0.7552 C.2       1 <0>         0.0252
     10 N1         -0.3822   -6.3565    0.4370 N.pl3     1 <0>        -0.3091
     11 C10        -0.8325   -7.5609    0.8964 C.2       1 <0>         0.0725
     12 C11        -0.3332   -8.7143    0.4052 C.2       1 <0>        -0.0702
     13 C12         0.6596   -8.6908   -0.5884 C.2       1 <0>        -0.0204
     14 C13         1.1176   -7.4983   -1.0553 C.2       1 <0>        -0.1164
     15 C14         0.5863   -6.3013   -0.5324 C.cat     1 <0>         0.3049
     16 N2          0.8350   -5.0279   -0.7995 N.pl3     1 <0>        -0.5016
     17 C15        -0.8427  -10.0338    0.9253 C.3       1 <0>        -0.1221
     18 C16        -1.7306   -4.6296    1.7735 C.3       1 <0>        -0.0775
     19 C17        -1.0655   -4.4753    3.1170 C.2       1 <0>         0.5078
     20 O1          0.1204   -4.6997    3.2358 O.2       1 <0>        -0.5296
     21 N3         -1.7885   -4.0881    4.1864 N.am      1 <0>        -0.6101
     22 C18        -1.1420   -3.9381    5.4924 C.3       1 <0>         0.0789
     23 C19        -3.2211   -3.8170    4.0429 C.3       1 <0>         0.0651
     24 H1          1.0042    1.8801    0.0026 H         1 <0>         0.0833
     25 H2         -0.5455    1.8639   -0.8728 H         1 <0>         0.0766
     26 H3         -0.5286    1.8543    0.9071 H         1 <0>         0.0762
     27 H4         -0.0064   -0.1385   -2.1317 H         1 <0>         0.1390
     28 H5          0.0266   -2.5984   -2.1545 H         1 <0>         0.1289
     29 H6          0.0488   -2.6217    2.1299 H         1 <0>         0.1324
     30 H7          0.0244   -0.1616    2.1340 H         1 <0>         0.1378
     31 H8         -1.5953   -7.5907    1.6603 H         1 <0>         0.1924
     32 H9          1.0577   -9.6154   -0.9795 H         1 <0>         0.1759
     33 H10         1.8809   -7.4684   -1.8188 H         1 <0>         0.1817
     34 H11        -1.6926  -10.3574    0.3245 H         1 <0>         0.0964
     35 H12        -0.0496  -10.7791    0.8641 H         1 <0>         0.0930
     36 H13        -1.1542   -9.9192    1.9635 H         1 <0>         0.0856
     37 H14        -2.1604   -3.6752    1.4692 H         1 <0>         0.1397
     38 H15        -2.5200   -5.3780    1.8427 H         1 <0>         0.1237
     39 H16        -0.7740   -2.9178    5.6007 H         1 <0>         0.0640
     40 H17        -1.8635   -4.1498    6.2815 H         1 <0>         0.0798
     41 H18        -0.3073   -4.6352    5.5668 H         1 <0>         0.0805
     42 H19        -3.7840   -4.7329    4.2229 H         1 <0>         0.0675
     43 H20        -3.5214   -3.0581    4.7652 H         1 <0>         0.0860
     44 H21        -3.4237   -3.4585    3.0337 H         1 <0>         0.0751
     45 H22         1.4768   -4.7047   -1.4511 H         1 <0>         0.4614
@<TRIPOS>BOND
     1    1    2 1
     2    1   24 1
     3    1   25 1
     4    1   26 1
     5    2    7 ar
     6    2    3 ar
     7    3    4 ar
     8    3   27 1
     9    4    5 ar
    10    4   28 1
    11    5    6 ar
    12    5    8 1
    13    6    7 ar
    14    6   29 1
    15    7   30 1
    16    8   16 1
    17    8    9 2
    18    9   10 1
    19    9   18 1
    20   10   15 1
    21   10   11 1
    22   11   12 2
    23   11   31 1
    24   12   13 1
    25   12   17 1
    26   13   14 2
    27   13   32 1
    28   14   15 1
    29   14   33 1
    30   15   16 2
    31   16   45 1
    32   17   34 1
    33   17   35 1
    34   17   36 1
    35   18   19 1
    36   18   37 1
    37   18   38 1
    38   19   20 2
    39   19   21 am
    40   21   22 1
    41   21   23 1
    42   22   39 1
    43   22   40 1
    44   22   41 1
    45   23   42 1
    46   23   43 1
    47   23   44 1
@<TRIPOS>MOLECULE
ZINC00003742
   42    44     0     0     0
SMALL
USER_CHARGES

@<TRIPOS>ATOM
      1 C1          0.6132   -0.3126    0.3401 C.3       1 <0>        -0.1814
      2 C2         -0.0495   -1.6822    0.1794 C.3       1 <0>         0.0683
      3 N1         -1.5043   -1.5177    0.1271 N.pl3     1 <0>        -0.4406
      4 C3         -2.2114   -1.5483    1.2650 C.2       1 <0>         0.2565
      5 C4         -3.5879   -1.3964    1.2607 C.2       1 <0>        -0.2944
      6 C5         -4.2726   -1.2045    0.0363 C.2       1 <0>         0.3615
      7 O1         -5.6141   -1.0544    0.0143 O.3       1 <0>        -0.4306
      8 C6         -3.5286   -1.1730   -1.1554 C.2       1 <0>        -0.1644
      9 C7         -2.1217   -1.3284   -1.0932 C.2       1 <0>         0.2487
     10 C8         -1.3706   -1.2962   -2.2496 C.2       1 <0>        -0.2554
     11 C9         -2.0046   -1.1029   -3.4900 C.2       1 <0>         0.2850
     12 C10        -3.4567   -0.9378   -3.5407 C.2       1 <0>         0.0086
     13 C11        -4.1775   -0.9840   -2.3943 C.2       1 <0>        -0.0022
     14 F1         -4.0776   -0.7511   -4.7260 F         1 <0>        -0.1151
     15 N2         -1.2865   -1.0701   -4.6121 N.pl3     1 <0>        -0.5998
     16 C12         0.1769   -0.9261   -4.5697 C.3       1 <0>         0.0802
     17 C13         0.7982   -2.0208   -5.4435 C.3       1 <0>        -0.0227
     18 N3          0.2216   -1.9550   -6.7924 N.4       1 <0>        -0.5068
     19 C14        -1.2137   -2.2600   -6.7381 C.3       1 <0>        -0.0205
     20 C15        -1.9341   -1.1828   -5.9282 C.3       1 <0>         0.0492
     21 C16        -4.3365   -1.4349    2.5243 C.2       1 <0>         0.5378
     22 O2         -3.7365   -1.4872    3.5897 O.co2     1 <0>        -0.6314
     23 O3         -5.5601   -1.4146    2.5116 O.co2     1 <0>        -0.6513
     24 H1          1.6956   -0.4350    0.3790 H         1 <0>         0.0941
     25 H2          0.3493    0.3203   -0.5072 H         1 <0>         0.0667
     26 H3          0.2667    0.1527    1.2629 H         1 <0>         0.0789
     27 H4          0.2970   -2.1475   -0.7434 H         1 <0>         0.1063
     28 H5          0.2143   -2.3151    1.0267 H         1 <0>         0.1217
     29 H6         -1.6978   -1.6945    2.2038 H         1 <0>         0.2107
     30 H7         -0.2986   -1.4186   -2.2026 H         1 <0>         0.1596
     31 H8         -5.2502   -0.8631   -2.4274 H         1 <0>         0.1751
     32 H9          0.4599    0.0539   -4.9538 H         1 <0>         0.1087
     33 H10         0.5261   -1.0350   -3.5428 H         1 <0>         0.1340
     34 H11         1.8764   -1.8714   -5.5014 H         1 <0>         0.1529
     35 H12         0.5894   -2.9971   -5.0062 H         1 <0>         0.1391
     36 H13         0.3533   -1.0279   -7.1682 H         1 <0>         0.4313
     37 H14        -1.6180   -2.2868   -7.7500 H         1 <0>         0.1538
     38 H15        -1.3616   -3.2291   -6.2616 H         1 <0>         0.1382
     39 H16        -2.9799   -1.4614   -5.7991 H         1 <0>         0.1640
     40 H17        -1.8679   -0.2292   -6.4519 H         1 <0>         0.1053
     41 H18         0.6844   -2.6255   -7.3877 H         1 <0>         0.4391
     42 H19        -6.0355   -1.1562    0.8787 H         1 <0>         0.4416
@<TRIPOS>BOND
     1    1    2 1
     2    1   24 1
     3    1   25 1
     4    1   26 1
     5    2    3 1
     6    2   27 1
     7    2   28 1
     8    3    9 1
     9    3    4 1
    10    4    5 2
    11    4   29 1
    12    5    6 1
    13    5   21 1
    14    6    7 1
    15    6    8 2
    16    7   42 1
    17    8   13 1
    18    8    9 1
    19    9   10 2
    20   10   11 1
    21   10   30 1
    22   11   12 1
    23   11   15 2
    24   12   13 2
    25   12   14 1
    26   13   31 1
    27   15   20 1
    28   15   16 1
    29   16   17 1
    30   16   32 1
    31   16   33 1
    32   17   18 1
    33   17   34 1
    34   17   35 1
    35   18   19 1
    36   18   36 1
    37   18   41 1
    38   19   20 1
    39   19   37 1
    40   19   38 1
    41   20   39 1
    42   20   40 1
    43   21   22 2
    44   21   23 1
@<TRIPOS>MOLECULE
ZINC00003723
   30    31     0     0     0
SMALL
USER_CHARGES

@<TRIPOS>ATOM
      1 C1         -0.0157    1.3058    0.0092 C.2       1 <0>        -0.1734
      2 C2          0.0021   -0.0041    0.0020 C.2       1 <0>        -0.1824
      3 C3         -1.2926   -0.7753    0.0102 C.3       1 <0>         0.1569
      4 N1         -1.3176   -1.6997   -1.1260 N.pl3     1 <0>        -0.5609
      5 C4         -0.8147   -2.9984   -0.9829 C.ar      1 <0>         0.1864
      6 C5          0.5251   -3.2590   -1.2429 C.ar      1 <0>        -0.0164
      7 C6          1.0182   -4.5424   -1.1001 C.ar      1 <0>        -0.1039
      8 C7          0.1798   -5.5664   -0.6996 C.ar      1 <0>        -0.0893
      9 C8         -1.1542   -5.3109   -0.4405 C.ar      1 <0>        -0.1032
     10 C9         -1.6529   -4.0288   -0.5752 C.ar      1 <0>        -0.0158
     11 Cl1        -3.3261   -3.7076   -0.2420 Cl        1 <0>        -0.0474
     12 Cl2         1.5783   -1.9743   -1.7469 Cl        1 <0>        -0.0444
     13 C10        -1.8354   -1.2915   -2.3340 C.2       1 <0>         0.6112
     14 N2         -1.8900   -2.0624   -3.3708 N.2       1 <0>        -0.6179
     15 C11        -2.4927   -1.3446   -4.5025 C.3       1 <0>         0.0453
     16 C12        -2.8030    0.0546   -3.9344 C.3       1 <0>         0.0896
     17 N3         -2.3418   -0.0371   -2.5391 N.pl3     1 <0>        -0.7634
     18 H1          0.9122    1.8585    0.0033 H         1 <0>         0.1015
     19 H2         -0.9582    1.8330    0.0166 H         1 <0>         0.0958
     20 H3          0.9446   -0.5313   -0.0098 H         1 <0>         0.1200
     21 H4         -1.3737   -1.3393    0.9394 H         1 <0>         0.0924
     22 H5         -2.1295   -0.0812   -0.0676 H         1 <0>         0.0817
     23 H6          2.0596   -4.7456   -1.3020 H         1 <0>         0.1431
     24 H7          0.5678   -6.5683   -0.5892 H         1 <0>         0.1452
     25 H8         -1.8063   -6.1133   -0.1285 H         1 <0>         0.1435
     26 H9         -1.7863   -1.2731   -5.3295 H         1 <0>         0.0774
     27 H10        -3.4097   -1.8386   -4.8236 H         1 <0>         0.0777
     28 H11        -2.2490    0.8212   -4.4762 H         1 <0>         0.0715
     29 H12        -3.8738    0.2552   -3.9698 H         1 <0>         0.0715
     30 H13        -2.3872    0.6717   -1.8784 H         1 <0>         0.4077
@<TRIPOS>BOND
     1    1    2 2
     2    1   18 1
     3    1   19 1
     4    2    3 1
     5    2   20 1
     6    3    4 1
     7    3   21 1
     8    3   22 1
     9    4    5 1
    10    4   13 1
    11    5   10 ar
    12    5    6 ar
    13    6    7 ar
    14    6   12 1
    15    7    8 ar
    16    7   23 1
    17    8    9 ar
    18    8   24 1
    19    9   10 ar
    20    9   25 1
    21   10   11 1
    22   13   17 1
    23   13   14 2
    24   14   15 1
    25   15   16 1
    26   15   26 1
    27   15   27 1
    28   16   17 1
    29   16   28 1
    30   16   29 1
    31   17   30 1
@<TRIPOS>MOLECULE
ZINC00001894
   45    47     0     0     0
SMALL
USER_CHARGES

@<TRIPOS>ATOM
      1 C1         -0.8165   -0.3205    0.4799 C.3       1 <0>        -0.1814
      2 C2         -0.2991   -1.6782    0.0003 C.3       1 <0>         0.0683
      3 N1          0.4746   -1.4987   -1.2307 N.pl3     1 <0>        -0.4409
      4 C3         -0.1496   -1.5595   -2.4150 C.2       1 <0>         0.2566
      5 C4          0.5437   -1.3950   -3.6025 C.2       1 <0>        -0.2951
      6 C5          1.9392   -1.1574   -3.5776 C.2       1 <0>         0.3617
      7 O1          2.6301   -0.9944   -4.7260 O.3       1 <0>        -0.4306
      8 C6          2.5911   -1.0942   -2.3343 C.2       1 <0>        -0.1651
      9 C7          1.8328   -1.2644   -1.1497 C.2       1 <0>         0.2493
     10 C8          2.4506   -1.2018    0.0819 C.2       1 <0>        -0.2564
     11 C9          3.8344   -0.9628    0.1587 C.2       1 <0>         0.2862
     12 C10         4.6053   -0.7829   -1.0708 C.2       1 <0>         0.0081
     13 C11         3.9812   -0.8595   -2.2711 C.2       1 <0>        -0.0020
     14 F1          5.9351   -0.5523   -1.0106 F         1 <0>        -0.1148
     15 N2          4.4392   -0.9004    1.3445 N.pl3     1 <0>        -0.5991
     16 C12         5.9056   -0.9526    1.4493 C.3       1 <0>         0.0498
     17 C13         6.2808   -2.0151    2.4876 C.3       1 <0>        -0.0206
     18 N3          5.5927   -1.7268    3.7523 N.4       1 <0>        -0.3871
     19 C14         4.1407   -1.8476    3.5704 C.3       1 <0>        -0.0229
     20 C15         3.6597   -0.7711    2.5853 C.3       1 <0>         0.0820
     21 C16         6.0369   -2.6801    4.7778 C.3       1 <0>        -0.0482
     22 C17        -0.1677   -1.4673   -4.8861 C.2       1 <0>         0.5379
     23 O2         -1.3866   -1.5756   -4.9048 O.co2     1 <0>        -0.6316
     24 O3          0.4586   -1.4193   -5.9363 O.co2     1 <0>        -0.6512
     25 H1          0.0271    0.3418    0.6743 H         1 <0>         0.0668
     26 H2         -1.4531    0.1179   -0.2886 H         1 <0>         0.0788
     27 H3         -1.3922   -0.4540    1.3958 H         1 <0>         0.0940
     28 H4          0.3374   -2.1166    0.7689 H         1 <0>         0.1063
     29 H5         -1.1427   -2.3405   -0.1940 H         1 <0>         0.1215
     30 H6         -1.2139   -1.7407   -2.4439 H         1 <0>         0.2105
     31 H7          1.8732   -1.3355    0.9848 H         1 <0>         0.1594
     32 H8          4.5470   -0.7278   -3.1816 H         1 <0>         0.1750
     33 H9          6.3327   -1.2184    0.4824 H         1 <0>         0.1650
     34 H10         6.2850    0.0190    1.7660 H         1 <0>         0.1048
     35 H11         5.9802   -2.9985    2.1262 H         1 <0>         0.1362
     36 H12         7.3587   -2.0010    2.6489 H         1 <0>         0.1505
     37 H13         3.9047   -2.8360    3.1763 H         1 <0>         0.1372
     38 H14         3.6415   -1.7100    4.5296 H         1 <0>         0.1497
     39 H15         3.8161    0.2185    3.0147 H         1 <0>         0.1083
     40 H16         2.6012   -0.9169    2.3698 H         1 <0>         0.1338
     41 H17         7.1136   -2.5859    4.9195 H         1 <0>         0.1287
     42 H18         5.5268   -2.4671    5.7172 H         1 <0>         0.1280
     43 H19         5.8000   -3.6948    4.4576 H         1 <0>         0.1238
     44 H20         5.8163   -0.7887    4.0492 H         1 <0>         0.4274
     45 H21         2.0934   -1.0890   -5.5247 H         1 <0>         0.4413
@<TRIPOS>BOND
     1    1    2 1
     2    1   25 1
     3    1   26 1
     4    1   27 1
     5    2    3 1
     6    2   28 1
     7    2   29 1
     8    3    9 1
     9    3    4 1
    10    4    5 2
    11    4   30 1
    12    5    6 1
    13    5   22 1
    14    6    7 1
    15    6    8 2
    16    7   45 1
    17    8   13 1
    18    8    9 1
    19    9   10 2
    20   10   11 1
    21   10   31 1
    22   11   12 1
    23   11   15 2
    24   12   13 2
    25   12   14 1
    26   13   32 1
    27   15   20 1
    28   15   16 1
    29   16   17 1
    30   16   33 1
    31   16   34 1
    32   17   18 1
    33   17   35 1
    34   17   36 1
    35   18   19 1
    36   18   21 1
    37   18   44 1
    38   19   20 1
    39   19   37 1
    40   19   38 1
    41   20   39 1
    42   20   40 1
    43   21   41 1
    44   21   42 1
    45   21   43 1
    46   22   23 2
    47   22   24 1
@<TRIPOS>MOLECULE
ZINC00001894
   43    45     0     0     0
SMALL
USER_CHARGES

@<TRIPOS>ATOM
      1 C1         -0.0187    1.5258    0.0104 C.3       1 <0>        -0.1739
      2 C2          0.0021   -0.0041    0.0020 C.3       1 <0>         0.0887
      3 N1         -1.3723   -0.5112    0.0124 N.pl3     1 <0>        -0.4956
      4 C3         -1.9640   -0.7340    1.1919 C.2       1 <0>         0.1581
      5 C4         -3.2572   -1.2114    1.2875 C.2       1 <0>        -0.2999
      6 C5         -4.0090   -1.4834    0.0501 C.2       1 <0>         0.4161
      7 O1         -5.1521   -1.9047    0.0814 O.2       1 <0>        -0.4493
      8 C6         -3.3216   -1.2243   -1.2260 C.ar      1 <0>        -0.1731
      9 C7         -2.0034   -0.7332   -1.1939 C.ar      1 <0>         0.1999
     10 C8         -1.3444   -0.4805   -2.3909 C.ar      1 <0>        -0.1628
     11 C9         -1.9911   -0.7088   -3.5951 C.ar      1 <0>         0.1930
     12 C10        -3.3021   -1.1916   -3.6164 C.ar      1 <0>         0.0383
     13 C11        -3.9589   -1.4546   -2.4475 C.ar      1 <0>        -0.0600
     14 F1         -3.9194   -1.4093   -4.7982 F         1 <0>        -0.1401
     15 N2         -1.3292   -0.4545   -4.7937 N.pl3     1 <0>        -0.6760
     16 C12        -1.4022    0.8694   -5.4303 C.3       1 <0>         0.1509
     17 C13        -1.8127    0.6833   -6.8949 C.3       1 <0>         0.0383
     18 N3         -0.8964   -0.2664   -7.5401 N.3       1 <0>        -0.5406
     19 C14        -0.9831   -1.5954   -6.9202 C.3       1 <0>         0.0382
     20 C15        -0.5336   -1.5009   -5.4535 C.3       1 <0>         0.1509
     21 C16        -1.1484   -0.3421   -8.9853 C.3       1 <0>         0.0253
     22 C17        -3.8708   -1.4439    2.5989 C.2       1 <0>         0.5377
     23 O2         -3.2368   -1.2149    3.6206 O.co2     1 <0>        -0.7046
     24 O3         -5.0172   -1.8671    2.6718 O.co2     1 <0>        -0.6654
     25 H1          1.0039    1.9031    0.0027 H         1 <0>         0.0727
     26 H2         -0.5459    1.8868   -0.8726 H         1 <0>         0.0615
     27 H3         -0.5289    1.8773    0.9072 H         1 <0>         0.0671
     28 H4          0.5123   -0.3556   -0.8948 H         1 <0>         0.0896
     29 H5          0.5293   -0.3651    0.8851 H         1 <0>         0.0945
     30 H6         -1.4126   -0.5346    2.0989 H         1 <0>         0.1680
     31 H7         -0.3312   -0.1069   -2.3828 H         1 <0>         0.1412
     32 H8         -4.9720   -1.8282   -2.4678 H         1 <0>         0.1477
     33 H9         -2.1436    1.4820   -4.9172 H         1 <0>         0.0731
     34 H10        -0.4267    1.3532   -5.3821 H         1 <0>         0.0604
     35 H11        -2.8303    0.2954   -6.9410 H         1 <0>         0.0394
     36 H12        -1.7649    1.6424   -7.4107 H         1 <0>         0.0792
     37 H13        -2.0122   -1.9516   -6.9660 H         1 <0>         0.0398
     38 H14        -0.3337   -2.2890   -7.4544 H         1 <0>         0.0789
     39 H15         0.5238   -1.2406   -5.4075 H         1 <0>         0.0608
     40 H16        -0.7004   -2.4562   -4.9558 H         1 <0>         0.0733
     41 H17        -1.0032    0.6417   -9.4315 H         1 <0>         0.0673
     42 H18        -0.4564   -1.0522   -9.4381 H         1 <0>         0.0670
     43 H19        -2.1727   -0.6721   -9.1587 H         1 <0>         0.0240
@<TRIPOS>BOND
     1    1    2 1
     2    1   25 1
     3    1   26 1
     4    1   27 1
     5    2    3 1
     6    2   28 1
     7    2   29 1
     8    3    9 1
     9    3    4 1
    10    4    5 2
    11    4   30 1
    12    5    6 1
    13    5   22 1
    14    6    7 2
    15    6    8 1
    16    8   13 ar
    17    8    9 ar
    18    9   10 ar
    19   10   11 ar
    20   10   31 1
    21   11   12 ar
    22   11   15 1
    23   12   13 ar
    24   12   14 1
    25   13   32 1
    26   15   20 1
    27   15   16 1
    28   16   17 1
    29   16   33 1
    30   16   34 1
    31   17   18 1
    32   17   35 1
    33   17   36 1
    34   18   19 1
    35   18   21 1
    36   19   20 1
    37   19   37 1
    38   19   38 1
    39   20   39 1
    40   20   40 1
    41   21   41 1
    42   21   42 1
    43   21   43 1
    44   22   23 2
    45   22   24 1
@<TRIPOS>MOLECULE
ZINC00001875
   30    32     0     0     0
SMALL
NO_CHARGES

@<TRIPOS>ATOM
      1 C1         -0.0648    1.5542   -0.2991 C.3       1 <0>        -0.1796
      2 C2         -0.0243    0.0250   -0.2722 C.3       1 <0>         0.0662
      3 N1         -1.3847   -0.4969   -0.1203 N.pl3     1 <0>        -0.4510
      4 C3         -1.8597   -0.6962    1.1144 C.2       1 <0>         0.2608
      5 C4         -3.1317   -1.1855    1.3434 C.2       1 <0>        -0.3469
      6 C5         -3.9923   -1.4973    0.1893 C.2       1 <0>         0.4045
      7 O1         -5.1216   -1.9306    0.3381 O.3       1 <0>        -0.3514
      8 C6         -3.4308   -1.2631   -1.1522 C.ar      1 <0>        -0.1493
      9 C7         -2.1229   -0.7567   -1.2568 C.ar      1 <0>         0.2141
     10 C8         -1.5806   -0.5262   -2.5159 C.ar      1 <0>        -0.1562
     11 C9         -2.3260   -0.7875   -3.6515 C.ar      1 <0>         0.1291
     12 C10        -3.6296   -1.2849   -3.5438 C.ar      1 <0>         0.0196
     13 C11        -4.1766   -1.5304   -2.3020 C.ar      1 <0>        -0.0200
     14 O2         -4.1362   -1.4517   -4.8011 O.3       1 <0>        -0.2936
     15 C12        -3.2885   -0.6701   -5.6631 C.3       1 <0>         0.2097
     16 O3         -2.0245   -0.6474   -4.9747 O.3       1 <0>        -0.2925
     17 C13        -3.6164   -1.3913    2.7121 C.2       1 <0>         0.5447
     18 O4         -2.8596   -1.2282    3.6603 O.co2     1 <0>        -0.6360
     19 O5         -4.7777   -1.7261    2.9063 O.co2     1 <0>        -0.6649
     20 H1          0.9474    1.9426   -0.4121 H         1 <0>         0.0911
     21 H2         -0.6772    1.8868   -1.1372 H         1 <0>         0.0680
     22 H3         -0.4934    1.9228    0.6329 H         1 <0>         0.0735
     23 H4          0.4043   -0.3435   -1.2042 H         1 <0>         0.1100
     24 H5          0.5882   -0.3075    0.5659 H         1 <0>         0.1169
     25 H6         -1.2281   -0.4674    1.9601 H         1 <0>         0.2032
     26 H7         -0.5754   -0.1420   -2.6077 H         1 <0>         0.1639
     27 H8         -5.1823   -1.9152   -2.2188 H         1 <0>         0.1668
     28 H9         -3.1856   -1.1502   -6.6363 H         1 <0>         0.1459
     29 H10        -3.6823    0.3402   -5.7735 H         1 <0>         0.0992
     30 H11        -5.4111   -1.9658    1.2601 H         1 <0>         0.4542
@<TRIPOS>BOND
     1    1    2 1
     2    1   20 1
     3    1   21 1
     4    1   22 1
     5    2    3 1
     6    2   23 1
     7    2   24 1
     8    3    9 1
     9    3    4 1
    10    4    5 2
    11    4   25 1
    12    5    6 1
    13    5   17 1
    14    6    7 2
    15    6    8 1
    16    7   30 1
    17    8   13 ar
    18    8    9 ar
    19    9   10 ar
    20   10   11 ar
    21   10   26 1
    22   11   16 1
    23   11   12 ar
    24   12   13 ar
    25   12   14 1
    26   13   27 1
    27   14   15 1
    28   15   16 1
    29   15   28 1
    30   15   29 1
    31   17   18 2
    32   17   19 1
@<TRIPOS>MOLECULE
ZINC00001732
   36    39     0     0     0
SMALL
USER_CHARGES

@<TRIPOS>ATOM
      1 C1         -0.1761    1.6644    0.3309 C.3       1 <0>        -0.0840
      2 C2         -0.0918    0.1660    0.1951 C.2       1 <0>         0.2267
      3 N1         -0.1463   -0.5049   -0.9253 N.2       1 <0>        -0.4747
      4 C3         -0.0160   -1.8168   -0.6659 C.2       1 <0>         0.0075
      5 C4          0.1228   -1.9635    0.6611 C.2       1 <0>        -0.0501
      6 N2          0.0596   -0.7165    1.2144 N.pl3     1 <0>        -0.4096
      7 C5          0.0997   -0.4314    2.5817 C.ar      1 <0>         0.1638
      8 C6         -0.6847    0.6142    3.0581 C.ar      1 <0>        -0.1268
      9 C7         -0.7067    0.9153    4.4038 C.ar      1 <0>        -0.0681
     10 C8          0.0545    0.1718    5.2918 C.ar      1 <0>        -0.0384
     11 C9          0.8456   -0.8573    4.8334 C.ar      1 <0>        -0.0569
     12 C10         0.8926   -1.1657    3.4650 C.ar      1 <0>        -0.0908
     13 C11         1.8123   -2.2224    3.0297 C.2       1 <0>         0.2577
     14 N3          1.6104   -3.1337    2.1425 N.2       1 <0>        -0.4674
     15 C12         0.3277   -3.2463    1.4253 C.3       1 <0>         0.1092
     16 C13         3.1363   -2.2436    3.6918 C.ar      1 <0>        -0.0958
     17 C14         3.4959   -3.3184    4.5055 C.ar      1 <0>        -0.0575
     18 C15         4.7306   -3.3325    5.1197 C.ar      1 <0>        -0.1289
     19 C16         5.6138   -2.2833    4.9317 C.ar      1 <0>        -0.0765
     20 C17         5.2659   -1.2141    4.1277 C.ar      1 <0>        -0.1531
     21 C18         4.0336   -1.1900    3.5002 C.ar      1 <0>         0.1234
     22 F1          3.6960   -0.1478    2.7096 F         1 <0>        -0.1331
     23 Cl1         0.0105    0.5398    6.9878 Cl        1 <0>        -0.0477
     24 H1          0.8296    2.0823    0.3770 H         1 <0>         0.0869
     25 H2         -0.7024    2.0782   -0.5293 H         1 <0>         0.0998
     26 H3         -0.7165    1.9167    1.2432 H         1 <0>         0.0840
     27 H4         -0.0221   -2.6126   -1.3960 H         1 <0>         0.1809
     28 H5         -1.2804    1.1946    2.3692 H         1 <0>         0.1560
     29 H6         -1.3163    1.7302    4.7653 H         1 <0>         0.1524
     30 H7          1.4349   -1.4321    5.5325 H         1 <0>         0.1487
     31 H8         -0.4898   -3.3901    2.1318 H         1 <0>         0.0838
     32 H9          0.3701   -4.0865    0.7322 H         1 <0>         0.1261
     33 H10         2.8083   -4.1379    4.6543 H         1 <0>         0.1365
     34 H11         5.0091   -4.1644    5.7495 H         1 <0>         0.1368
     35 H12         6.5791   -2.3001    5.4157 H         1 <0>         0.1379
     36 H13         5.9593   -0.3985    3.9853 H         1 <0>         0.1408
@<TRIPOS>BOND
     1    1    2 1
     2    1   24 1
     3    1   25 1
     4    1   26 1
     5    2    6 1
     6    2    3 2
     7    3    4 1
     8    4    5 2
     9    4   27 1
    10    5   15 1
    11    5    6 1
    12    6    7 1
    13    7   12 ar
    14    7    8 ar
    15    8    9 ar
    16    8   28 1
    17    9   10 ar
    18    9   29 1
    19   10   11 ar
    20   10   23 1
    21   11   12 ar
    22   11   30 1
    23   12   13 1
    24   13   14 2
    25   13   16 1
    26   14   15 1
    27   15   31 1
    28   15   32 1
    29   16   21 ar
    30   16   17 ar
    31   17   18 ar
    32   17   33 1
    33   18   19 ar
    34   18   34 1
    35   19   20 ar
    36   19   35 1
    37   20   21 ar
    38   20   36 1
    39   21   22 1
@<TRIPOS>MOLECULE
ZINC00001402
   39    42     0     0     0
SMALL
USER_CHARGES

@<TRIPOS>ATOM
      1 C1          0.3474    1.9429   -0.0039 C.3       1 <0>        -0.1552
      2 C2          0.2614    0.4170    0.0684 C.3       1 <0>        -0.0502
      3 C3          0.8750   -0.1800   -1.1718 C.2       1 <0>        -0.1363
      4 C4          2.1510   -0.5462   -1.3792 C.2       1 <0>        -0.0923
      5 C5          2.4718   -1.1022   -2.6862 C.2       1 <0>        -0.1896
      6 C6          1.3964   -1.1637   -3.5653 C.2       1 <0>         0.0279
      7 S1          0.0842   -0.5790   -2.7153 S.3       1 <0>         0.3432
      8 N1          1.4258   -1.6027   -4.8753 N.pl3     1 <0>        -0.3999
      9 C7          0.4850   -2.2604   -5.5955 C.2       1 <0>         0.2334
     10 N2          0.9758   -2.4316   -6.7965 N.2       1 <0>        -0.2588
     11 N3          2.1602   -1.9292   -6.8635 N.2       1 <0>        -0.2151
     12 C8          2.4867   -1.4186   -5.7135 C.2       1 <0>         0.1240
     13 C9          3.7791   -0.7539   -5.3196 C.3       1 <0>         0.1551
     14 N4          4.3833   -1.4836   -4.2036 N.pl3     1 <0>        -0.5353
     15 C10         3.8250   -1.5827   -3.0422 C.2       1 <0>         0.4738
     16 C11         4.6115   -2.2362   -1.9702 C.ar      1 <0>        -0.1673
     17 C12         5.7805   -1.6406   -1.4969 C.ar      1 <0>        -0.0594
     18 C13         6.5088   -2.2538   -0.4986 C.ar      1 <0>        -0.1053
     19 C14         6.0822   -3.4579    0.0339 C.ar      1 <0>        -0.0490
     20 C15         4.9245   -4.0546   -0.4305 C.ar      1 <0>        -0.1019
     21 C16         4.1828   -3.4475   -1.4257 C.ar      1 <0>         0.0143
     22 Cl1         2.7251   -4.1933   -2.0023 Cl        1 <0>        -0.0381
     23 C17        -0.8679   -2.7094   -5.1067 C.3       1 <0>        -0.0903
     24 H1          1.3923    2.2450   -0.0738 H         1 <0>         0.0626
     25 H2         -0.1925    2.2960   -0.8824 H         1 <0>         0.0612
     26 H3         -0.0964    2.3747    0.8932 H         1 <0>         0.0783
     27 H4          0.8013    0.0639    0.9470 H         1 <0>         0.1043
     28 H5         -0.7835    0.1149    0.1384 H         1 <0>         0.0957
     29 H6          2.9034   -0.4330   -0.6128 H         1 <0>         0.1691
     30 H7          4.4628   -0.7574   -6.1686 H         1 <0>         0.1746
     31 H8          3.5812    0.2743   -5.0168 H         1 <0>         0.1462
     32 H9          6.1152   -0.7012   -1.9115 H         1 <0>         0.1483
     33 H10         7.4142   -1.7934   -0.1320 H         1 <0>         0.1544
     34 H11         6.6561   -3.9336    0.8153 H         1 <0>         0.1551
     35 H12         4.5969   -4.9944   -0.0112 H         1 <0>         0.1565
     36 H13        -1.5981   -1.9193   -5.2816 H         1 <0>         0.1104
     37 H14        -1.1690   -3.6080   -5.6451 H         1 <0>         0.1207
     38 H15        -0.8152   -2.9258   -4.0396 H         1 <0>         0.0868
     39 H16         5.2421   -1.9127   -4.3423 H         1 <0>         0.4485
@<TRIPOS>BOND
     1    1    2 1
     2    1   24 1
     3    1   25 1
     4    1   26 1
     5    2    3 1
     6    2   27 1
     7    2   28 1
     8    3    7 1
     9    3    4 2
    10    4    5 1
    11    4   29 1
    12    5   15 1
    13    5    6 2
    14    6    7 1
    15    6    8 1
    16    8   12 1
    17    8    9 1
    18    9   10 2
    19    9   23 1
    20   10   11 1
    21   11   12 2
    22   12   13 1
    23   13   14 1
    24   13   30 1
    25   13   31 1
    26   14   15 2
    27   14   39 1
    28   15   16 1
    29   16   21 ar
    30   16   17 ar
    31   17   18 ar
    32   17   32 1
    33   18   19 ar
    34   18   33 1
    35   19   20 ar
    36   19   34 1
    37   20   21 ar
    38   20   35 1
    39   21   22 1
    40   23   36 1
    41   23   37 1
    42   23   38 1
@<TRIPOS>MOLECULE
ZINC00001370
   33    36     0     0     0
SMALL
USER_CHARGES

@<TRIPOS>ATOM
      1 C1         -0.0168    1.3789    0.0114 C.ar      1 <0>        -0.0413
      2 C2          0.0456    0.0852   -0.4747 C.ar      1 <0>        -0.1163
      3 C3          1.2485   -0.5906   -0.4933 C.ar      1 <0>        -0.0411
      4 C4          2.4029    0.0333   -0.0206 C.ar      1 <0>        -0.1794
      5 C5          2.3335    1.3377    0.4682 C.ar      1 <0>        -0.0673
      6 C6          1.1248    2.0031    0.4816 C.ar      1 <0>        -0.1129
      7 C7          3.6974   -0.6868   -0.0373 C.2       1 <0>         0.4461
      8 N1          4.7512    0.0483   -0.1397 N.pl3     1 <0>        -0.5402
      9 C8          6.1001   -0.5275   -0.1504 C.3       1 <0>         0.1547
     10 C9          6.1974   -1.4491   -1.3401 C.2       1 <0>         0.1212
     11 N2          7.0323   -1.3705   -2.3361 N.2       1 <0>        -0.2247
     12 N3          6.7871   -2.3111   -3.1810 N.2       1 <0>        -0.2638
     13 C10         5.7890   -3.0418   -2.7568 C.2       1 <0>         0.2029
     14 N4          5.4027   -2.5253   -1.5604 N.pl3     1 <0>        -0.4380
     15 C11         4.4179   -3.0059   -0.6972 C.ar      1 <0>         0.1844
     16 C12         3.6215   -2.1482    0.0707 C.ar      1 <0>        -0.1367
     17 C13         2.6990   -2.6976    0.9729 C.ar      1 <0>        -0.0219
     18 C14         2.5551   -4.0629    1.0821 C.ar      1 <0>        -0.0400
     19 C15         3.3203   -4.9088    0.2958 C.ar      1 <0>        -0.0192
     20 C16         4.2456   -4.3825   -0.5960 C.ar      1 <0>        -0.1066
     21 Cl1         1.4123   -4.7256    2.2084 Cl        1 <0>        -0.0088
     22 H1         -0.9598    1.9054    0.0197 H         1 <0>         0.1493
     23 H2         -0.8491   -0.3970   -0.8401 H         1 <0>         0.1509
     24 H3          1.2959   -1.6006   -0.8726 H         1 <0>         0.1422
     25 H4          3.2240    1.8259    0.8358 H         1 <0>         0.1369
     26 H5          1.0699    3.0133    0.8596 H         1 <0>         0.1506
     27 H6          6.8404    0.2678   -0.2379 H         1 <0>         0.1742
     28 H7          6.2686   -1.0904    0.7676 H         1 <0>         0.1469
     29 H8          5.3546   -3.8926   -3.2607 H         1 <0>         0.2432
     30 H9          2.0968   -2.0446    1.5873 H         1 <0>         0.1671
     31 H10         3.1931   -5.9787    0.3714 H         1 <0>         0.1717
     32 H11         4.8417   -5.0434   -1.2077 H         1 <0>         0.1674
     33 H12         4.6492    1.0102   -0.2122 H         1 <0>         0.4484
@<TRIPOS>BOND
     1    1    6 ar
     2    1    2 ar
     3    1   22 1
     4    2    3 ar
     5    2   23 1
     6    3    4 ar
     7    3   24 1
     8    4    5 ar
     9    4    7 1
    10    5    6 ar
    11    5   25 1
    12    6   26 1
    13    7   16 1
    14    7    8 2
    15    8    9 1
    16    8   33 1
    17    9   10 1
    18    9   27 1
    19    9   28 1
    20   10   14 1
    21   10   11 2
    22   11   12 1
    23   12   13 2
    24   13   14 1
    25   13   29 1
    26   14   15 1
    27   15   20 ar
    28   15   16 ar
    29   16   17 ar
    30   17   18 ar
    31   17   30 1
    32   18   19 ar
    33   18   21 1
    34   19   20 ar
    35   19   31 1
    36   20   32 1
@<TRIPOS>MOLECULE
ZINC00001288
   35    35     0     0     0
SMALL
USER_CHARGES

@<TRIPOS>ATOM
      1 C1          3.0826   -0.8266   -0.9334 C.3       1 <0>        -0.1680
      2 C2          1.8853    0.0648   -1.2693 C.3       1 <0>         0.1301
      3 N1          0.6482   -0.7086   -1.1365 N.am      1 <0>        -0.6317
      4 C3          0.0070   -0.8456    0.1736 C.3       1 <0>         0.0645
      5 C4         -0.4428    0.5309    0.6676 C.3       1 <0>        -0.1808
      6 C5          0.1000   -1.2942   -2.2196 C.2       1 <0>         0.7112
      7 O1          0.7712   -1.4777   -3.2166 O.2       1 <0>        -0.5828
      8 N2         -1.1923   -1.6763   -2.1975 N.am      1 <0>        -0.6293
      9 C6         -2.0775   -1.2811   -1.0914 C.3       1 <0>         0.0646
     10 C7         -3.3473   -0.6594   -1.6826 C.3       1 <0>         0.0384
     11 N3         -3.9406   -1.5920   -2.6502 N.3       1 <0>        -0.5432
     12 C8         -3.0371   -1.8299   -3.7838 C.3       1 <0>         0.0402
     13 C9         -1.7562   -2.4945   -3.2819 C.3       1 <0>         0.1326
     14 C10        -5.2490   -1.1097   -3.1120 C.3       1 <0>         0.0239
     15 H1          2.9893   -1.1899    0.0900 H         1 <0>         0.0536
     16 H2          3.1084   -1.6738   -1.6188 H         1 <0>         0.0618
     17 H3          4.0030   -0.2511   -1.0322 H         1 <0>         0.0649
     18 H4          1.8594    0.9120   -0.5839 H         1 <0>         0.0744
     19 H5          1.9785    0.4281   -2.2927 H         1 <0>         0.0807
     20 H6         -0.8593   -1.5015    0.0873 H         1 <0>         0.1166
     21 H7          0.7165   -1.2721    0.8826 H         1 <0>         0.0704
     22 H8         -0.9199    0.4290    1.6424 H         1 <0>         0.0743
     23 H9          0.4235    1.1868    0.7539 H         1 <0>         0.0670
     24 H10        -1.1524    0.9574   -0.0414 H         1 <0>         0.0640
     25 H11        -2.3403   -2.1590   -0.5012 H         1 <0>         0.0777
     26 H12        -1.5715   -0.5503   -0.4606 H         1 <0>         0.1334
     27 H13        -4.0615   -0.4615   -0.8832 H         1 <0>         0.0874
     28 H14        -3.0951    0.2744   -2.1850 H         1 <0>         0.0378
     29 H15        -3.5263   -2.4809   -4.5084 H         1 <0>         0.0894
     30 H16        -2.7893   -0.8798   -4.2570 H         1 <0>         0.0389
     31 H17        -1.0378   -2.5654   -4.0985 H         1 <0>         0.0977
     32 H18        -1.9874   -3.4912   -2.9062 H         1 <0>         0.0725
     33 H19        -5.1297   -0.1380   -3.5911 H         1 <0>         0.0259
     34 H20        -5.6659   -1.8188   -3.8272 H         1 <0>         0.0710
     35 H21        -5.9225   -1.0145   -2.2602 H         1 <0>         0.0708
@<TRIPOS>BOND
     1    1    2 1
     2    1   15 1
     3    1   16 1
     4    1   17 1
     5    2    3 1
     6    2   18 1
     7    2   19 1
     8    3    4 1
     9    3    6 am
    10    4    5 1
    11    4   20 1
    12    4   21 1
    13    5   22 1
    14    5   23 1
    15    5   24 1
    16    6    7 2
    17    6    8 am
    18    8   13 1
    19    8    9 1
    20    9   10 1
    21    9   25 1
    22    9   26 1
    23   10   11 1
    24   10   27 1
    25   10   28 1
    26   11   12 1
    27   11   14 1
    28   12   13 1
    29   12   29 1
    30   12   30 1
    31   13   31 1
    32   13   32 1
    33   14   33 1
    34   14   34 1
    35   14   35 1
@<TRIPOS>MOLECULE
ZINC00001131
   17    18     0     0     0
SMALL
USER_CHARGES

@<TRIPOS>ATOM
      1 C1         -0.0168    1.3885    0.0097 C.ar      1 <0>        -0.1554
      2 C2          1.1577    2.0864    0.0022 C.ar      1 <0>        -0.1059
      3 C3          2.3623    1.3593   -0.0132 C.ar      1 <0>        -0.0242
      4 C4          3.6079    2.0102   -0.0210 C.ar      1 <0>        -0.1776
      5 C5          4.7560    1.2770   -0.0355 C.ar      1 <0>         0.0001
      6 C6          4.7161   -0.1159   -0.0432 C.ar      1 <0>        -0.2231
      7 C7          3.5148   -0.7876   -0.0359 C.ar      1 <0>         0.3209
      8 C8          2.3091   -0.0565   -0.0203 C.ar      1 <0>         0.0496
      9 N1          1.1266   -0.6782   -0.0118 N.ar      1 <0>        -0.4127
     10 C9          0.0021   -0.0041    0.0020 C.ar      1 <0>         0.0501
     11 O1          3.4907   -2.1465   -0.0440 O.3       1 <0>        -0.6317
     12 Cl1         6.2006   -1.0155   -0.0629 Cl        1 <0>        -0.0973
     13 Cl2         3.6833    3.7445   -0.0128 Cl        1 <0>        -0.1069
     14 H1         -0.9590    1.9162    0.0260 H         1 <0>         0.1230
     15 H2          1.1614    3.1664    0.0076 H         1 <0>         0.1290
     16 H3          5.7105    1.7824   -0.0415 H         1 <0>         0.1171
     17 H4         -0.9340   -0.5427    0.0081 H         1 <0>         0.1447
@<TRIPOS>BOND
     1    1   10 ar
     2    1    2 ar
     3    1   14 1
     4    2    3 ar
     5    2   15 1
     6    3    8 ar
     7    3    4 ar
     8    4    5 ar
     9    4   13 1
    10    5    6 ar
    11    5   16 1
    12    6    7 ar
    13    6   12 1
    14    7    8 ar
    15    7   11 1
    16    8    9 ar
    17    9   10 ar
    18   10   17 1
@<TRIPOS>MOLECULE
ZINC00000931
   38    41     0     0     0
SMALL
USER_CHARGES

@<TRIPOS>ATOM
      1 C1          0.0219    1.3829   -0.0764 C.ar      1 <0>        -0.1014
      2 C2          1.2103    2.0885   -0.0488 C.ar      1 <0>        -0.1247
      3 C3          2.4181    1.4139   -0.0077 C.ar      1 <0>        -0.1034
      4 C4          2.4449    0.0293   -0.0014 C.ar      1 <0>         0.0323
      5 C5          1.2488   -0.6897   -0.0527 C.ar      1 <0>         0.1355
      6 C6          0.0341    0.0028   -0.0766 C.ar      1 <0>        -0.1066
      7 N1          1.2319   -2.0504   -0.1207 N.2       1 <0>        -0.5903
      8 C7          1.9962   -2.8673    0.5177 C.2       1 <0>         0.4964
      9 C8          3.0708   -2.4786    1.4446 C.ar      1 <0>        -0.1399
     10 C9          3.2874   -3.2183    2.6091 C.ar      1 <0>        -0.0632
     11 C10         4.3103   -2.8686    3.4681 C.ar      1 <0>        -0.0508
     12 C11         5.1250   -1.7871    3.1785 C.ar      1 <0>        -0.0664
     13 C12         4.9138   -1.0430    2.0323 C.ar      1 <0>        -0.1185
     14 C13         3.8836   -1.3750    1.1679 C.ar      1 <0>         0.1423
     15 O1          3.6427   -0.6061    0.0768 O.3       1 <0>        -0.2619
     16 Cl1         4.5755   -3.7879    4.9167 Cl        1 <0>        -0.0512
     17 N2          1.7907   -4.2134    0.3169 N.pl3     1 <0>        -0.5922
     18 C14         2.7070   -5.2108    0.8902 C.3       1 <0>         0.1096
     19 C15         3.1460   -6.1662   -0.2245 C.3       1 <0>         0.0416
     20 N3          1.9574   -6.7220   -0.8850 N.3       1 <0>        -0.6891
     21 C16         1.1689   -5.6684   -1.5378 C.3       1 <0>         0.0413
     22 C17         0.6454   -4.6928   -0.4717 C.3       1 <0>         0.1256
     23 H1         -0.9188    1.9131   -0.0933 H         1 <0>         0.1315
     24 H2          1.1963    3.1684   -0.0596 H         1 <0>         0.1321
     25 H3          3.3437    1.9696    0.0191 H         1 <0>         0.1320
     26 H4         -0.8972   -0.5439   -0.0949 H         1 <0>         0.1326
     27 H5          2.6548   -4.0632    2.8378 H         1 <0>         0.1493
     28 H6          5.9287   -1.5239    3.8503 H         1 <0>         0.1498
     29 H7          5.5529   -0.2009    1.8109 H         1 <0>         0.1514
     30 H8          3.5801   -4.7088    1.3072 H         1 <0>         0.0932
     31 H9          2.1952   -5.7714    1.6724 H         1 <0>         0.0814
     32 H10         3.7466   -5.6226   -0.9539 H         1 <0>         0.0371
     33 H11         3.7370   -6.9763    0.2026 H         1 <0>         0.0908
     34 H12         1.7970   -5.1317   -2.2488 H         1 <0>         0.0370
     35 H13         0.3260   -6.1175   -2.0631 H         1 <0>         0.0889
     36 H14        -0.0608   -5.2046    0.1821 H         1 <0>         0.0736
     37 H15         0.1549   -3.8483   -0.9557 H         1 <0>         0.1056
     38 H16         2.2132   -7.4426   -1.5433 H         1 <0>         0.3485
@<TRIPOS>BOND
     1    1    6 ar
     2    1    2 ar
     3    1   23 1
     4    2    3 ar
     5    2   24 1
     6    3    4 ar
     7    3   25 1
     8    4   15 1
     9    4    5 ar
    10    5    6 ar
    11    5    7 1
    12    6   26 1
    13    7    8 2
    14    8    9 1
    15    8   17 1
    16    9   14 ar
    17    9   10 ar
    18   10   11 ar
    19   10   27 1
    20   11   12 ar
    21   11   16 1
    22   12   13 ar
    23   12   28 1
    24   13   14 ar
    25   13   29 1
    26   14   15 1
    27   17   22 1
    28   17   18 1
    29   18   19 1
    30   18   30 1
    31   18   31 1
    32   19   20 1
    33   19   32 1
    34   19   33 1
    35   20   21 1
    36   20   38 1
    37   21   22 1
    38   21   34 1
    39   21   35 1
    40   22   36 1
    41   22   37 1
@<TRIPOS>MOLECULE
ZINC00000905
   34    34     0     0     0
SMALL
USER_CHARGES

@<TRIPOS>ATOM
      1 C1         -0.0178    1.4608    0.0101 C.3       1 <0>         0.0900
      2 N1          0.0021   -0.0041    0.0020 N.pl3     1 <0>        -0.5603
      3 C2          1.2806   -0.7192   -0.0140 C.3       1 <0>         0.0601
      4 C3         -1.1836   -0.7103    0.0095 C.ar      1 <0>         0.6813
      5 N2         -1.1655   -2.0396    0.0077 N.ar      1 <0>        -0.6399
      6 C4         -2.3076   -2.7198    0.0150 C.ar      1 <0>         0.6820
      7 N3         -3.4678   -2.0709    0.0245 N.ar      1 <0>        -0.6179
      8 C5         -3.4859   -0.7417    0.0272 C.ar      1 <0>         0.6685
      9 N4         -2.3437   -0.0614    0.0241 N.ar      1 <0>        -0.6161
     10 N5         -4.6903   -0.0679    0.0366 N.pl3     1 <0>        -0.5335
     11 C6         -5.9489   -0.8176    0.0436 C.3       1 <0>         0.0791
     12 C7         -4.7102    1.3969    0.0396 C.3       1 <0>         0.0793
     13 N6         -2.2889   -4.0998    0.0122 N.pl3     1 <0>        -0.5599
     14 C8         -1.0103   -4.8150    0.0012 C.3       1 <0>         0.0599
     15 C9         -3.5475   -4.8495    0.0202 C.3       1 <0>         0.0845
     16 H1          1.0048    1.8381    0.0023 H         1 <0>         0.1000
     17 H2         -0.5450    1.8219   -0.8730 H         1 <0>         0.0841
     18 H3         -0.5280    1.8123    0.9069 H         1 <0>         0.0840
     19 H4          1.6074   -0.9021    1.0096 H         1 <0>         0.0882
     20 H5          1.1583   -1.6705   -0.5318 H         1 <0>         0.0717
     21 H6          2.0272   -0.1171   -0.5318 H         1 <0>         0.1133
     22 H7         -6.2542   -1.0056    1.0730 H         1 <0>         0.0764
     23 H8         -6.7199   -0.2379   -0.4639 H         1 <0>         0.0923
     24 H9         -5.8091   -1.7672   -0.4730 H         1 <0>         0.0923
     25 H10        -4.7221    1.7622   -0.9873 H         1 <0>         0.0763
     26 H11        -5.6016    1.7471    0.5601 H         1 <0>         0.0922
     27 H12        -3.8218    1.7713    0.5482 H         1 <0>         0.0924
     28 H13        -0.6855   -4.9943    1.0261 H         1 <0>         0.0884
     29 H14        -1.1315   -5.7681   -0.5136 H         1 <0>         0.1133
     30 H15        -0.2626   -4.2146   -0.5171 H         1 <0>         0.0718
     31 H16        -3.8673   -5.0335   -1.0055 H         1 <0>         0.0800
     32 H17        -3.4003   -5.8011    0.5311 H         1 <0>         0.0954
     33 H18        -4.3112   -4.2718    0.5408 H         1 <0>         0.0983
     34 H19        -0.3190   -2.5131    0.0008 H         1 <0>         0.4326
@<TRIPOS>BOND
     1    1    2 1
     2    1   16 1
     3    1   17 1
     4    1   18 1
     5    2    3 1
     6    2    4 1
     7    3   19 1
     8    3   20 1
     9    3   21 1
    10    4    9 ar
    11    4    5 ar
    12    5    6 ar
    13    5   34 1
    14    6    7 ar
    15    6   13 1
    16    7    8 ar
    17    8    9 ar
    18    8   10 1
    19   10   11 1
    20   10   12 1
    21   11   22 1
    22   11   23 1
    23   11   24 1
    24   12   25 1
    25   12   26 1
    26   12   27 1
    27   13   14 1
    28   13   15 1
    29   14   28 1
    30   14   29 1
    31   14   30 1
    32   15   31 1
    33   15   32 1
    34   15   33 1
@<TRIPOS>MOLECULE
ZINC00000903
   36    39     0     0     0
SMALL
USER_CHARGES

@<TRIPOS>ATOM
      1 C1         -0.0479    1.5356    0.0714 C.3       1 <0>        -0.0916
      2 C2         -0.0152    0.0293    0.0385 C.2       1 <0>         0.2283
      3 N1         -0.0938   -0.7283   -1.0243 N.2       1 <0>        -0.2640
      4 N2         -0.0147   -1.9684   -0.6861 N.2       1 <0>        -0.2216
      5 C3          0.1270   -2.0614    0.6047 C.2       1 <0>         0.1167
      6 N3          0.1075   -0.8012    1.1074 N.pl3     1 <0>        -0.4382
      7 C4          0.1615   -0.4554    2.4584 C.ar      1 <0>         0.1917
      8 C5         -0.5890    0.6327    2.8919 C.ar      1 <0>        -0.1196
      9 C6         -0.5951    0.9929    4.2231 C.ar      1 <0>        -0.0181
     10 C7          0.1482    0.2671    5.1403 C.ar      1 <0>        -0.0404
     11 C8          0.9071   -0.8037    4.7243 C.ar      1 <0>        -0.0246
     12 C9          0.9376   -1.1728    3.3710 C.ar      1 <0>        -0.1377
     13 C10         1.8244   -2.2727    2.9758 C.2       1 <0>         0.4455
     14 N4          1.5911   -3.2114    2.1265 N.pl3     1 <0>        -0.5413
     15 C11         0.3031   -3.3171    1.4207 C.3       1 <0>         0.1572
     16 C12         3.1508   -2.3071    3.6347 C.ar      1 <0>        -0.1783
     17 C13         3.7200   -1.1317    4.1244 C.ar      1 <0>        -0.0419
     18 C14         4.9555   -1.1701    4.7374 C.ar      1 <0>        -0.1163
     19 C15         5.6298   -2.3713    4.8664 C.ar      1 <0>        -0.0409
     20 C16         5.0704   -3.5405    4.3827 C.ar      1 <0>        -0.1128
     21 C17         3.8329   -3.5158    3.7728 C.ar      1 <0>        -0.0669
     22 Cl1         0.1229    0.7097    6.8187 Cl        1 <0>        -0.0090
     23 H1          0.9716    1.9208    0.0896 H         1 <0>         0.1034
     24 H2         -0.5609    1.9073   -0.8156 H         1 <0>         0.1176
     25 H3         -0.5779    1.8682    0.9639 H         1 <0>         0.0931
     26 H4         -1.1710    1.1999    2.1805 H         1 <0>         0.1709
     27 H5         -1.1787    1.8405    4.5507 H         1 <0>         0.1721
     28 H6          1.4835   -1.3641    5.4455 H         1 <0>         0.1673
     29 H7         -0.5131   -3.4093    2.1372 H         1 <0>         0.1478
     30 H8          0.3179   -4.1860    0.7628 H         1 <0>         0.1735
     31 H9          3.1949   -0.1933    4.0236 H         1 <0>         0.1424
     32 H10         5.3973   -0.2607    5.1170 H         1 <0>         0.1511
     33 H11         6.5969   -2.3963    5.3464 H         1 <0>         0.1495
     34 H12         5.6015   -4.4752    4.4863 H         1 <0>         0.1507
     35 H13         3.3952   -4.4298    3.3996 H         1 <0>         0.1366
     36 H14         2.2826   -3.8679    1.9484 H         1 <0>         0.4480
@<TRIPOS>BOND
     1    1    2 1
     2    1   23 1
     3    1   24 1
     4    1   25 1
     5    2    6 1
     6    2    3 2
     7    3    4 1
     8    4    5 2
     9    5   15 1
    10    5    6 1
    11    6    7 1
    12    7   12 ar
    13    7    8 ar
    14    8    9 ar
    15    8   26 1
    16    9   10 ar
    17    9   27 1
    18   10   11 ar
    19   10   22 1
    20   11   12 ar
    21   11   28 1
    22   12   13 1
    23   13   14 2
    24   13   16 1
    25   14   15 1
    26   14   36 1
    27   15   29 1
    28   15   30 1
    29   16   21 ar
    30   16   17 ar
    31   17   18 ar
    32   17   31 1
    33   18   19 ar
    34   18   32 1
    35   19   20 ar
    36   19   33 1
    37   20   21 ar
    38   20   34 1
    39   21   35 1
@<TRIPOS>MOLECULE
ZINC00601301
   40    42     0     0     0
SMALL
USER_CHARGES

@<TRIPOS>ATOM
      1 C1         -0.0167    1.3781    0.0096 C.ar      1 <0>        -0.1317
      2 C2          1.1709    2.0855    0.0021 C.ar      1 <0>        -0.1294
      3 C3          2.3773    1.4107   -0.0130 C.ar      1 <0>        -0.1240
      4 C4          2.3960    0.0285   -0.0201 C.ar      1 <0>        -0.0525
      5 C5          1.2084   -0.6789   -0.0117 C.ar      1 <0>        -0.0769
      6 C6          0.0021   -0.0041    0.0020 C.ar      1 <0>        -0.1280
      7 C7          3.7112   -0.7071   -0.0376 C.3       1 <0>        -0.0571
      8 C8          4.1714   -0.9633    1.3989 C.3       1 <0>         0.3502
      9 H1          4.2094   -0.0203    1.9443 H         1 <0>         0.0397
     10 N1          5.4973   -1.5763    1.3868 N.pl3     1 <0>        -0.7335
     11 C9          6.1006   -2.1172    2.5190 C.ar      1 <0>         0.3523
     12 C10         7.4878   -2.2554    2.5404 C.ar      1 <0>        -0.1787
     13 C11         8.1138   -2.8028    3.6404 C.ar      1 <0>        -0.0282
     14 C12         7.3710   -3.2202    4.7298 C.ar      1 <0>        -0.7218
     15 C13         5.9949   -3.0807    4.7189 C.ar      1 <0>         0.1097
     16 C14         5.3661   -2.5257    3.6240 C.ar      1 <0>        -0.7135
     17 S1          3.6114   -2.3128    3.6308 S.o2      1 <0>         2.5504
     18 O1          3.0388   -3.5922    3.8642 O.2       1 <0>        -0.9987
     19 O2          3.3333   -1.1849    4.4491 O.2       1 <0>        -1.0315
     20 N2          3.2272   -1.8832    2.0651 N.2       1 <0>        -1.0701
     21 S2          8.1756   -3.9285    6.1282 S.o2      1 <0>         2.6893
     22 O3          9.2455   -3.0565    6.4660 O.2       1 <0>        -0.9526
     23 O4          7.1536   -4.2742    7.0529 O.2       1 <0>        -0.9637
     24 N3          8.8632   -5.3501    5.6294 N.pl3     1 <0>        -1.2483
     25 C15         9.6138   -2.9474    3.6553 C.3       1 <0>         0.4787
     26 F1         10.1412   -2.4610    2.4543 F         1 <0>        -0.1721
     27 F2         10.1420   -2.2179    4.7259 F         1 <0>        -0.1343
     28 F3          9.9508   -4.2975    3.7997 F         1 <0>        -0.1729
     29 H2         -0.9591    1.9053    0.0259 H         1 <0>         0.1125
     30 H3          1.1563    3.1654    0.0076 H         1 <0>         0.1133
     31 H4          3.3051    1.9634   -0.0196 H         1 <0>         0.1144
     32 H5          1.2231   -1.7588   -0.0176 H         1 <0>         0.1285
     33 H6         -0.9258   -0.5567    0.0082 H         1 <0>         0.1156
     34 H7          3.5884   -1.6586   -0.5549 H         1 <0>         0.0803
     35 H8          4.4573   -0.1052   -0.5563 H         1 <0>         0.0622
     36 H9          5.9820   -1.6085    0.5472 H         1 <0>         0.3920
     37 H10         8.0739   -1.9330    1.6925 H         1 <0>         0.1448
     38 H11         5.4125   -3.4068    5.5680 H         1 <0>         0.1502
     39 H12         8.7709   -5.6361    4.7071 H         1 <0>         0.4178
     40 H13         9.3582   -5.8967    6.2595 H         1 <0>         0.4176
@<TRIPOS>BOND
     1    1    6 ar
     2    1    2 ar
     3    1   29 1
     4    2    3 ar
     5    2   30 1
     6    3    4 ar
     7    3   31 1
     8    4    5 ar
     9    4    7 1
    10    5    6 ar
    11    5   32 1
    12    6   33 1
    13    7    8 1
    14    7   34 1
    15    7   35 1
    16    8    9 1
    17    8   20 1
    18    8   10 1
    19   10   11 1
    20   10   36 1
    21   11   16 ar
    22   11   12 ar
    23   12   13 ar
    24   12   37 1
    25   13   14 ar
    26   13   25 1
    27   14   15 ar
    28   14   21 1
    29   15   16 ar
    30   15   38 1
    31   16   17 1
    32   17   18 2
    33   17   19 2
    34   17   20 1
    35   21   22 2
    36   21   23 2
    37   21   24 1
    38   24   39 1
    39   24   40 1
    40   25   26 1
    41   25   27 1
    42   25   28 1
@<TRIPOS>MOLECULE
ZINC00000637
   37    37     0     0     0
SMALL
USER_CHARGES

@<TRIPOS>ATOM
      1 C1         -0.0187    1.5258    0.0104 C.3       1 <0>        -0.1783
      2 C2          0.0021   -0.0041    0.0020 C.3       1 <0>         0.0548
      3 C3          0.7421   -0.5109    1.2415 C.3       1 <0>        -0.1782
      4 C4         -1.4333   -0.5336    0.0129 C.3       1 <0>        -0.1744
      5 N1          0.6897   -0.4778   -1.2066 N.4       1 <0>        -0.5009
      6 C5          2.0678    0.0307   -1.2170 C.3       1 <0>        -0.0455
      7 C6          2.7840   -0.4628   -2.4758 C.3       1 <0>         0.1795
      8 H1          2.7213   -1.5498   -2.5270 H         1 <0>         0.1146
      9 C7          4.2310   -0.0447   -2.4270 C.ar      1 <0>        -0.1062
     10 C8          5.2217   -0.9997   -2.5612 C.ar      1 <0>        -0.0866
     11 C9          6.5496   -0.6077   -2.5153 C.ar      1 <0>        -0.2346
     12 C10         6.8347    0.7422   -2.3346 C.ar      1 <0>         0.2601
     13 C11         5.7859    1.6410   -2.2077 C.ar      1 <0>        -0.0241
     14 N2          4.5352    1.2276   -2.2624 N.ar      1 <0>        -0.4221
     15 C12         6.0791    3.1061   -2.0115 C.3       1 <0>         0.1594
     16 O1          6.1647    3.7495   -3.2846 O.3       1 <0>        -0.5685
     17 O2          8.1224    1.1737   -2.2827 O.3       1 <0>        -0.6812
     18 O3          2.1628    0.1050   -3.6307 O.3       1 <0>        -0.5627
     19 H2          1.0039    1.9031    0.0027 H         1 <0>         0.0860
     20 H3         -0.5459    1.8868   -0.8726 H         1 <0>         0.0807
     21 H4         -0.5289    1.8773    0.9072 H         1 <0>         0.1006
     22 H5          0.2319   -0.1594    2.1383 H         1 <0>         0.1011
     23 H6          0.7568   -1.6008    1.2356 H         1 <0>         0.0803
     24 H7          1.7647   -0.1336    1.2338 H         1 <0>         0.0850
     25 H8         -1.9605   -0.1726   -0.8702 H         1 <0>         0.0803
     26 H9         -1.4185   -1.6235    0.0069 H         1 <0>         0.0798
     27 H10        -1.9435   -0.1821    0.9097 H         1 <0>         0.1020
     28 H11         0.7033   -1.4867   -1.2121 H         1 <0>         0.4219
     29 H12         2.0530    1.1205   -1.2110 H         1 <0>         0.1413
     30 H13         2.5950   -0.3304   -0.3340 H         1 <0>         0.1382
     31 H14         4.9634   -2.0391   -2.6998 H         1 <0>         0.1051
     32 H15         7.3441   -1.3321   -2.6170 H         1 <0>         0.1138
     33 H16         5.2795    3.5616   -1.4272 H         1 <0>         0.0353
     34 H17         7.0255    3.2197   -1.4826 H         1 <0>         0.0587
     35 H18         6.3519    4.6969   -3.2347 H         1 <0>         0.3681
     36 H19         2.1814    1.0716   -3.6522 H         1 <0>         0.3897
     37 H20         0.2017   -0.1436   -2.0240 H         1 <0>         0.4270
@<TRIPOS>BOND
     1    1    2 1
     2    1   19 1
     3    1   20 1
     4    1   21 1
     5    2    3 1
     6    2    4 1
     7    2    5 1
     8    3   22 1
     9    3   23 1
    10    3   24 1
    11    4   25 1
    12    4   26 1
    13    4   27 1
    14    5    6 1
    15    5   28 1
    16    5   37 1
    17    6    7 1
    18    6   29 1
    19    6   30 1
    20    7    8 1
    21    7   18 1
    22    7    9 1
    23    9   14 ar
    24    9   10 ar
    25   10   31 1
    26   10   11 ar
    27   11   12 ar
    28   11   32 1
    29   12   17 1
    30   12   13 ar
    31   13   15 1
    32   13   14 ar
    33   15   16 1
    34   15   33 1
    35   15   34 1
    36   16   35 1
    37   18   36 1
@<TRIPOS>MOLECULE
ZINC00000363
   57    59     0     0     0
SMALL
USER_CHARGES

@<TRIPOS>ATOM
      1 C1         -1.6087    0.2802   -0.8235 C.3       1 <0>        -0.0497
      2 N1         -1.1978   -1.0969   -0.5189 N.4       1 <0>        -0.2785
      3 C2         -0.5460   -1.6853   -1.6967 C.3       1 <0>        -0.0277
      4 C3         -0.1181   -3.1195   -1.3794 C.3       1 <0>        -0.0350
      5 N2          0.8232   -3.1116   -0.2517 N.4       1 <0>        -0.3827
      6 C4          0.1715   -2.5232    0.9260 C.3       1 <0>        -0.0616
      7 C5         -0.2564   -1.0889    0.6088 C.3       1 <0>        -0.0265
      8 C6          1.2341   -4.4887    0.0529 C.3       1 <0>        -0.0444
      9 C7          2.3854   -4.4664    1.0604 C.3       1 <0>         0.1692
     10 C8          1.8780   -3.9766    2.3922 C.ar      1 <0>        -0.1223
     11 C9          0.6846   -4.4583    2.8968 C.ar      1 <0>        -0.1368
     12 C10         0.2192   -4.0091    4.1185 C.ar      1 <0>        -0.1120
     13 C11         0.9474   -3.0783    4.8357 C.ar      1 <0>        -0.0951
     14 C12         2.1412   -2.5972    4.3315 C.ar      1 <0>        -0.1102
     15 C13         2.6088   -3.0497    3.1118 C.ar      1 <0>        -0.0902
     16 C14         2.9521   -5.8787    1.2186 C.3       1 <0>        -0.1007
     17 C15         1.8369   -6.8294    1.6586 C.3       1 <0>        -0.1275
     18 C16         2.4035   -8.2417    1.8168 C.3       1 <0>        -0.1209
     19 C17         3.5110   -8.2316    2.8724 C.3       1 <0>        -0.1256
     20 C18         4.6262   -7.2810    2.4324 C.3       1 <0>        -0.1239
     21 C19         4.0596   -5.8686    2.2742 C.3       1 <0>        -0.1073
     22 O1          3.4125   -3.5909    0.5907 O.3       1 <0>        -0.5456
     23 C20        -2.3800   -1.8936   -0.1644 C.3       1 <0>        -0.0664
     24 H1         -0.7315    0.8713   -1.0866 H         1 <0>         0.1309
     25 H2         -2.3071    0.2743   -1.6603 H         1 <0>         0.1359
     26 H3         -2.0923    0.7168    0.0503 H         1 <0>         0.1357
     27 H4         -1.2445   -1.6912   -2.5334 H         1 <0>         0.1751
     28 H5          0.3312   -1.0941   -1.9597 H         1 <0>         0.1537
     29 H6         -0.9953   -3.7107   -1.1163 H         1 <0>         0.1529
     30 H7          0.3655   -3.5561   -2.2533 H         1 <0>         0.1763
     31 H8         -0.7057   -3.1143    1.1891 H         1 <0>         0.1515
     32 H9          0.8700   -2.5173    1.7628 H         1 <0>         0.1943
     33 H10         0.6207   -0.4978    0.3457 H         1 <0>         0.1531
     34 H11        -0.7400   -0.6524    1.4827 H         1 <0>         0.1727
     35 H12         0.3909   -5.0341    0.4767 H         1 <0>         0.1496
     36 H13         1.5620   -4.9809   -0.8627 H         1 <0>         0.1518
     37 H14         0.1157   -5.1855    2.3365 H         1 <0>         0.1293
     38 H15        -0.7135   -4.3849    4.5124 H         1 <0>         0.1366
     39 H16         0.5834   -2.7268    5.7898 H         1 <0>         0.1370
     40 H17         2.7100   -1.8698    4.8917 H         1 <0>         0.1377
     41 H18         3.5433   -2.6767    2.7196 H         1 <0>         0.1427
     42 H19         3.3612   -6.2149    0.2659 H         1 <0>         0.0902
     43 H20         1.4277   -6.4932    2.6113 H         1 <0>         0.0804
     44 H21         1.0479   -6.8366    0.9066 H         1 <0>         0.0566
     45 H22         1.6091   -8.9190    2.1302 H         1 <0>         0.0707
     46 H23         2.8127   -8.5779    0.8641 H         1 <0>         0.0662
     47 H24         3.1019   -7.8954    3.8251 H         1 <0>         0.0634
     48 H25         3.9148   -9.2378    2.9851 H         1 <0>         0.0711
     49 H26         5.4152   -7.2737    3.1844 H         1 <0>         0.0717
     50 H27         5.0354   -7.6171    1.4797 H         1 <0>         0.0652
     51 H28         4.8540   -5.1914    1.9607 H         1 <0>         0.0721
     52 H29         3.6504   -5.5324    3.2269 H         1 <0>         0.0689
     53 H30         3.7862   -3.8458   -0.2640 H         1 <0>         0.3965
     54 H31        -3.0784   -1.8995   -1.0012 H         1 <0>         0.1411
     55 H32        -2.0751   -2.9154    0.0616 H         1 <0>         0.1150
     56 H33        -2.8636   -1.4570    0.7095 H         1 <0>         0.1405
     57 H34         1.6352   -2.5644   -0.4952 H         1 <0>         0.4346
@<TRIPOS>BOND
     1    1    2 1
     2    1   24 1
     3    1   25 1
     4    1   26 1
     5    2    7 1
     6    2    3 1
     7    2   23 1
     8    3    4 1
     9    3   27 1
    10    3   28 1
    11    4    5 1
    12    4   29 1
    13    4   30 1
    14    5    6 1
    15    5    8 1
    16    5   57 1
    17    6    7 1
    18    6   31 1
    19    6   32 1
    20    7   33 1
    21    7   34 1
    22    8    9 1
    23    8   35 1
    24    8   36 1
    25    9   10 1
    26    9   16 1
    27    9   22 1
    28   10   15 ar
    29   10   11 ar
    30   11   12 ar
    31   11   37 1
    32   12   13 ar
    33   12   38 1
    34   13   14 ar
    35   13   39 1
    36   14   15 ar
    37   14   40 1
    38   15   41 1
    39   16   21 1
    40   16   17 1
    41   16   42 1
    42   17   18 1
    43   17   43 1
    44   17   44 1
    45   18   19 1
    46   18   45 1
    47   18   46 1
    48   19   20 1
    49   19   47 1
    50   19   48 1
    51   20   21 1
    52   20   49 1
    53   20   50 1
    54   21   51 1
    55   21   52 1
    56   22   53 1
    57   23   54 1
    58   23   55 1
    59   23   56 1
@<TRIPOS>MOLECULE
ZINC00020220
   43    46     0     0     0
SMALL
USER_CHARGES

@<TRIPOS>ATOM
      1 C1         -0.0973    1.4829   -0.2906 C.2       1 <0>        -0.0028
      2 C2          1.1426    2.1108   -0.0459 C.2       1 <0>        -0.1630
      3 C3          2.3126    1.3408    0.1671 C.2       1 <0>         0.2522
      4 C4          2.2490   -0.0367    0.1368 C.2       1 <0>        -0.2505
      5 C5          1.0195   -0.6747   -0.1066 C.2       1 <0>         0.2840
      6 C6         -0.1812    0.1310   -0.3249 C.2       1 <0>         0.0100
      7 F1         -1.3684   -0.4698   -0.5591 F         1 <0>        -0.1151
      8 N1          0.9490   -2.0051   -0.1375 N.pl3     1 <0>        -0.6001
      9 C7          2.1664   -2.8249   -0.2373 C.3       1 <0>         0.0805
     10 C8          2.1235   -3.8936    0.8600 C.3       1 <0>        -0.0229
     11 N2          0.8712   -4.6528    0.7538 N.4       1 <0>        -0.5067
     12 C9         -0.2725   -3.7703    1.0170 C.3       1 <0>        -0.0206
     13 C10        -0.3480   -2.6957   -0.0668 C.3       1 <0>         0.0504
     14 N3          3.5171    1.9720    0.4055 N.pl3     1 <0>        -0.4101
     15 C11         3.6050    3.3087    0.4404 C.2       1 <0>         0.2443
     16 C12         2.4922    4.1080    0.2387 C.2       1 <0>        -0.2898
     17 C13         1.2318    3.5128   -0.0099 C.2       1 <0>         0.3600
     18 O1          0.1370    4.2773   -0.2090 O.3       1 <0>        -0.4287
     19 C14         2.6192    5.5711    0.2833 C.2       1 <0>         0.5376
     20 O2          3.7247    6.0866    0.3812 O.co2     1 <0>        -0.6319
     21 O3          1.6194    6.2742    0.2224 O.co2     1 <0>        -0.6504
     22 C15         4.7206    1.1659    0.6249 C.3       1 <0>         0.0042
     23 C16         5.9853    1.8949    1.0833 C.3       1 <0>        -0.1643
     24 C17         5.8869    1.3590   -0.3464 C.3       1 <0>        -0.1636
     25 H1         -0.9826    2.0815   -0.4466 H         1 <0>         0.1757
     26 H2          3.1409   -0.6237    0.2991 H         1 <0>         0.1588
     27 H3          2.2054   -3.3052   -1.2150 H         1 <0>         0.1087
     28 H4          3.0448   -2.1944   -0.1004 H         1 <0>         0.1340
     29 H5          2.9699   -4.5702    0.7416 H         1 <0>         0.1528
     30 H6          2.1758   -3.4135    1.8371 H         1 <0>         0.1390
     31 H7          0.7905   -5.0379   -0.1753 H         1 <0>         0.4314
     32 H8         -1.1917   -4.3560    1.0144 H         1 <0>         0.1539
     33 H9         -0.1478   -3.2939    1.9894 H         1 <0>         0.1382
     34 H10        -1.1311   -1.9797    0.1828 H         1 <0>         0.1631
     35 H11        -0.5672   -3.1627   -1.0270 H         1 <0>         0.1054
     36 H12         4.5622    3.7717    0.6297 H         1 <0>         0.2093
     37 H13         4.5497    0.1617    1.0127 H         1 <0>         0.1559
     38 H14         5.9218    2.9743    1.2217 H         1 <0>         0.1206
     39 H15         6.6465    1.3704    1.7730 H         1 <0>         0.1297
     40 H16         6.4835    0.4819   -0.5973 H         1 <0>         0.1248
     41 H17         5.7588    2.0858   -1.1486 H         1 <0>         0.1149
     42 H18         0.8767   -5.4041    1.4273 H         1 <0>         0.4391
     43 H19         0.3215    5.2257   -0.2487 H         1 <0>         0.4420
@<TRIPOS>BOND
     1    1    6 2
     2    1    2 1
     3    1   25 1
     4    2   17 2
     5    2    3 1
     6    3    4 2
     7    3   14 1
     8    4    5 1
     9    4   26 1
    10    5    6 1
    11    5    8 2
    12    6    7 1
    13    8   13 1
    14    8    9 1
    15    9   10 1
    16    9   27 1
    17    9   28 1
    18   10   11 1
    19   10   29 1
    20   10   30 1
    21   11   12 1
    22   11   31 1
    23   11   42 1
    24   12   13 1
    25   12   32 1
    26   12   33 1
    27   13   34 1
    28   13   35 1
    29   14   15 1
    30   14   22 1
    31   15   16 2
    32   15   36 1
    33   16   17 1
    34   16   19 1
    35   17   18 1
    36   18   43 1
    37   19   20 2
    38   19   21 1
    39   22   24 1
    40   22   23 1
    41   22   37 1
    42   23   24 1
    43   23   38 1
    44   23   39 1
    45   24   40 1
    46   24   41 1
@<TRIPOS>MOLECULE
ZINC00155525
   37    40     0     0     0
SMALL
USER_CHARGES

@<TRIPOS>ATOM
      1 C1         -0.0178    1.4648    0.0101 C.3       1 <0>         0.0192
      2 N1          0.0021   -0.0041    0.0020 N.3       1 <0>        -0.5351
      3 C2          0.6018   -0.5138   -1.2323 C.3       1 <0>         0.0555
      4 C3          0.3976   -2.0146   -1.3536 C.3       1 <0>        -0.0776
      5 C4          0.5263   -2.7174   -0.0321 C.ar      1 <0>        -0.0678
      6 C5          0.5134   -4.1072   -0.0264 C.ar      1 <0>        -0.1163
      7 C6          0.6501   -4.8114    1.1528 C.ar      1 <0>        -0.1200
      8 C7          0.7962   -4.1333    2.3465 C.ar      1 <0>        -0.1129
      9 C8          0.7895   -2.7433    2.3528 C.ar      1 <0>        -0.0449
     10 C9          0.6642   -2.0333    1.1556 C.ar      1 <0>        -0.0607
     11 C10         0.7069   -0.5280    1.1815 C.3       1 <0>         0.1304
     12 H1          1.7447   -0.1953    1.1600 H         1 <0>         0.0557
     13 C11         0.0339    0.0159    2.4396 C.3       1 <0>        -0.0730
     14 C12         0.5876   -0.6499    3.6699 C.ar      1 <0>        -0.0659
     15 C13         0.9390   -1.9977    3.6249 C.ar      1 <0>        -0.0516
     16 C14         1.4283   -2.6300    4.7670 C.ar      1 <0>         0.0944
     17 C15         1.5751   -1.9030    5.9440 C.ar      1 <0>         0.0808
     18 C16         1.2374   -0.5594    5.9738 C.ar      1 <0>        -0.1265
     19 C17         0.7450    0.0634    4.8400 C.ar      1 <0>        -0.1047
     20 O1          2.0503   -2.5102    7.0642 O.3       1 <0>        -0.4861
     21 O2          1.7599   -3.9479    4.7308 O.3       1 <0>        -0.4773
     22 H2          1.0047    1.8421    0.0024 H         1 <0>         0.0283
     23 H3         -0.5450    1.8259   -0.8730 H         1 <0>         0.0732
     24 H4         -0.5280    1.8163    0.9069 H         1 <0>         0.0750
     25 H5          0.1396   -0.0190   -2.0864 H         1 <0>         0.0837
     26 H6          1.6700   -0.2966   -1.2281 H         1 <0>         0.0352
     27 H7         -0.5963   -2.2042   -1.7591 H         1 <0>         0.0831
     28 H8          1.1405   -2.4177   -2.0418 H         1 <0>         0.0803
     29 H9          0.3952   -4.6430   -0.9566 H         1 <0>         0.1221
     30 H10         0.6425   -5.8913    1.1417 H         1 <0>         0.1256
     31 H11         0.9147   -4.6799    3.2705 H         1 <0>         0.1555
     32 H12         0.2076    1.0900    2.5037 H         1 <0>         0.0841
     33 H13        -1.0385   -0.1708    2.3823 H         1 <0>         0.0937
     34 H14         1.3592    0.0049    6.8865 H         1 <0>         0.1361
     35 H15         0.4835    1.1108    4.8716 H         1 <0>         0.1339
     36 H16         3.0124   -2.4730    7.1538 H         1 <0>         0.3877
     37 H17         2.6802   -4.1153    4.4856 H         1 <0>         0.3873
@<TRIPOS>BOND
     1    1    2 1
     2    1   22 1
     3    1   23 1
     4    1   24 1
     5    2   11 1
     6    2    3 1
     7    3    4 1
     8    3   25 1
     9    3   26 1
    10    4    5 1
    11    4   27 1
    12    4   28 1
    13    5   10 ar
    14    5    6 ar
    15    6    7 ar
    16    6   29 1
    17    7    8 ar
    18    7   30 1
    19    8    9 ar
    20    8   31 1
    21    9   15 1
    22    9   10 ar
    23   10   11 1
    24   11   12 1
    25   11   13 1
    26   13   14 1
    27   13   32 1
    28   13   33 1
    29   14   19 ar
    30   14   15 ar
    31   15   16 ar
    32   16   17 ar
    33   16   21 1
    34   17   18 ar
    35   17   20 1
    36   18   19 ar
    37   18   34 1
    38   19   35 1
    39   20   36 1
    40   21   37 1
@<TRIPOS>MOLECULE
ZINC18202350
   56    59     0     0     0
SMALL
USER_CHARGES

@<TRIPOS>ATOM
      1 C1         -0.2414    2.1161    0.9622 C.3       1 <0>        -0.1864
      2 C2         -0.2012    0.5941    0.8112 C.3       1 <0>         0.1804
      3 C3          0.2932    0.2424   -0.5671 C.ar      1 <0>        -0.0585
      4 C4          0.1529    1.1423   -1.6024 C.ar      1 <0>        -0.1348
      5 C5          0.5939    0.8166   -2.8744 C.ar      1 <0>        -0.0822
      6 C6          1.1770   -0.4109   -3.1208 C.ar      1 <0>        -0.1575
      7 C7          1.3312   -1.3259   -2.0897 C.ar      1 <0>         0.1560
      8 C8          0.8921   -0.9960   -0.8016 C.ar      1 <0>        -0.1621
      9 C9          1.0779   -1.9427    0.3162 C.2       1 <0>         0.4339
     10 O1          1.3790   -3.1032    0.1019 O.2       1 <0>        -0.4252
     11 C10         0.8988   -1.4741    1.6517 C.2       1 <0>        -0.2460
     12 C11         0.8837   -2.3657    2.6465 C.2       1 <0>         0.1836
     13 C12         0.7186   -2.0063    4.0985 C.3       1 <0>         0.1189
     14 C13         0.9796   -0.5105    4.2784 C.3       1 <0>        -0.0882
     15 H1          2.0328   -0.3233    4.0691 H         1 <0>         0.0835
     16 C14         0.1489    0.2708    3.2642 C.3       1 <0>         0.1214
     17 H2         -0.8880   -0.0630    3.3023 H         1 <0>         0.1264
     18 C15         0.7270    0.0050    1.8712 C.3       1 <0>        -0.0393
     19 H3          1.7004    0.4903    1.8005 H         1 <0>         0.0943
     20 O2          0.2174    1.6676    3.5578 O.3       1 <0>        -0.5357
     21 C16         0.6929   -0.0580    5.6966 C.3       1 <0>         0.0942
     22 H4          0.7265    1.0309    5.7339 H         1 <0>         0.0635
     23 C17        -0.6490   -0.5198    6.1799 C.2       1 <0>         0.3594
     24 C18        -1.3110   -1.5761    5.6053 C.2       1 <0>        -0.4984
     25 C19        -0.7243   -2.2806    4.4786 C.2       1 <0>         0.3869
     26 O3         -1.3937   -3.0653    3.8387 O.2       1 <0>        -0.5162
     27 C20        -2.6124   -2.0044    6.1423 C.2       1 <0>         0.5883
     28 O4         -3.1564   -1.3506    7.0120 O.2       1 <0>        -0.5657
     29 N1         -3.2016   -3.1210    5.6707 N.am      1 <0>        -0.8750
     30 O5         -1.2223    0.1209    7.2094 O.3       1 <0>        -0.5999
     31 N2          1.7294   -0.5969    6.5873 N.3       1 <0>        -0.5123
     32 C21         3.0406   -0.0065    6.2870 C.3       1 <0>         0.0257
     33 C22         1.3704   -0.3924    7.9970 C.3       1 <0>         0.0318
     34 O6          1.6054   -2.7800    4.9091 O.3       1 <0>        -0.4982
     35 O7          1.0248   -3.6683    2.3299 O.3       1 <0>        -0.4494
     36 O8          1.9030   -2.5330   -2.3278 O.3       1 <0>        -0.4779
     37 O9         -1.5172    0.0660    0.9880 O.3       1 <0>        -0.5334
     38 H5          0.7743    2.5107    0.9368 H         1 <0>         0.0647
     39 H6         -0.8192    2.5472    0.1446 H         1 <0>         0.0580
     40 H7         -0.7080    2.3748    1.9127 H         1 <0>         0.1029
     41 H8         -0.3028    2.1044   -1.4209 H         1 <0>         0.1365
     42 H9          0.4808    1.5277   -3.6794 H         1 <0>         0.1306
     43 H10         1.5134   -0.6585   -4.1168 H         1 <0>         0.1329
     44 H11         1.1183    2.0158    3.6055 H         1 <0>         0.3657
     45 H12        -2.7357   -3.6820    5.0310 H         1 <0>         0.3989
     46 H13        -4.0915   -3.3637    5.9708 H         1 <0>         0.3754
     47 H14         3.0115    1.0644    6.4881 H         1 <0>         0.0174
     48 H15         3.8012   -0.4732    6.9129 H         1 <0>         0.0645
     49 H16         3.2819   -0.1726    5.2371 H         1 <0>         0.0631
     50 H17         0.4868   -0.9840    8.2365 H         1 <0>         0.0808
     51 H18         2.1996   -0.7043    8.6321 H         1 <0>         0.0525
     52 H19         1.1584    0.6630    8.1686 H         1 <0>         0.0273
     53 H20         1.5155   -3.7353    4.7889 H         1 <0>         0.3678
     54 H21         1.7516   -4.1087    2.7912 H         1 <0>         0.3888
     55 H22         2.8632   -2.5427   -2.2138 H         1 <0>         0.3907
     56 H23        -2.1638    0.4000    0.3514 H         1 <0>         0.3752
@<TRIPOS>BOND
     1    1    2 1
     2    1   38 1
     3    1   39 1
     4    1   40 1
     5    2   18 1
     6    2    3 1
     7    2   37 1
     8    3    8 ar
     9    3    4 ar
    10    4    5 ar
    11    4   41 1
    12    5    6 ar
    13    5   42 1
    14    6    7 ar
    15    6   43 1
    16    7    8 ar
    17    7   36 1
    18    8    9 1
    19    9   10 2
    20    9   11 1
    21   11   18 1
    22   11   12 2
    23   12   13 1
    24   12   35 1
    25   13   25 1
    26   13   14 1
    27   13   34 1
    28   14   15 1
    29   14   16 1
    30   14   21 1
    31   16   17 1
    32   16   18 1
    33   16   20 1
    34   18   19 1
    35   20   44 1
    36   21   22 1
    37   21   23 1
    38   21   31 1
    39   23   24 2
    40   23   30 1
    41   24   25 1
    42   24   27 1
    43   25   26 2
    44   27   28 2
    45   27   29 am
    46   29   45 1
    47   29   46 1
    48   31   32 1
    49   31   33 1
    50   32   47 1
    51   32   48 1
    52   32   49 1
    53   33   50 1
    54   33   51 1
    55   33   52 1
    56   34   53 1
    57   35   54 1
    58   36   55 1
    59   37   56 1
@<TRIPOS>MOLECULE
ZINC14879985
   53    56     0     0     0
SMALL
USER_CHARGES

@<TRIPOS>ATOM
      1 C1          0.6357   -0.3212   -1.0759 C.3       1 <0>         0.0254
      2 N1         -0.1318   -0.0806    0.1534 N.3       1 <0>        -0.5123
      3 C2         -0.2030    1.3549    0.4571 C.3       1 <0>         0.0283
      4 C3         -1.4758   -0.6657    0.0578 C.3       1 <0>         0.0958
      5 H1         -1.9719   -0.2667   -0.8270 H         1 <0>         0.0638
      6 C4         -1.3475   -2.1671   -0.0874 C.3       1 <0>        -0.0902
      7 H2         -0.5862   -2.3629   -0.8425 H         1 <0>         0.0865
      8 C5         -2.6447   -2.8188   -0.5589 C.3       1 <0>         0.1191
      9 H3         -3.3587   -2.8603    0.2637 H         1 <0>         0.1152
     10 C6         -2.3027   -4.2355   -1.0223 C.3       1 <0>        -0.0147
     11 H4         -1.6755   -4.1769   -1.9119 H         1 <0>         0.0949
     12 C7         -3.5628   -4.9961   -1.3577 C.2       1 <0>        -0.1056
     13 C8         -4.7328   -4.3798   -1.4738 C.2       1 <0>        -0.1432
     14 C9         -3.4385   -6.4581   -1.5521 C.ar      1 <0>         0.0152
     15 C10        -4.2950   -7.1554   -2.3912 C.ar      1 <0>        -0.1337
     16 C11        -4.1310   -8.5191   -2.5588 C.ar      1 <0>        -0.0763
     17 C12        -3.1193   -9.1919   -1.8982 C.ar      1 <0>        -0.1664
     18 C13        -2.2568   -8.5144   -1.0482 C.ar      1 <0>         0.1635
     19 C14        -2.4141   -7.1378   -0.8595 C.ar      1 <0>        -0.1794
     20 C15        -1.5429   -6.3905    0.0619 C.2       1 <0>         0.4324
     21 O1         -0.8185   -6.9925    0.8345 O.2       1 <0>        -0.4239
     22 C16        -1.5546   -4.9693    0.0582 C.2       1 <0>        -0.2501
     23 C17        -0.9102   -4.3305    1.0412 C.2       1 <0>         0.1796
     24 C18        -0.8971   -2.8374    1.2080 C.3       1 <0>         0.1187
     25 C19        -1.8897   -2.4770    2.2980 C.2       1 <0>         0.3857
     26 O2         -2.2187   -3.2991    3.1282 O.2       1 <0>        -0.5158
     27 C20        -2.4427   -1.1248    2.3330 C.2       1 <0>        -0.4979
     28 C21        -2.2626   -0.2754    1.2727 C.2       1 <0>         0.3595
     29 O3         -2.8096    0.9480    1.3254 O.3       1 <0>        -0.5985
     30 C22        -3.1969   -0.6733    3.5133 C.2       1 <0>         0.5875
     31 O4         -3.7603    0.4046    3.4993 O.2       1 <0>        -0.5638
     32 N2         -3.2634   -1.4543    4.6097 N.am      1 <0>        -0.8755
     33 O5          0.4216   -2.4087    1.5533 O.3       1 <0>        -0.4991
     34 O6         -0.2485   -5.0763    1.9486 O.3       1 <0>        -0.4475
     35 O7         -1.2674   -9.1832   -0.4043 O.3       1 <0>        -0.4788
     36 O8         -3.1973   -2.0714   -1.6442 O.3       1 <0>        -0.5375
     37 H5          1.6038    0.1743   -1.0025 H         1 <0>         0.0642
     38 H6          0.7850   -1.3929   -1.2071 H         1 <0>         0.0652
     39 H7          0.0878    0.0766   -1.9301 H         1 <0>         0.0175
     40 H8         -0.7865    1.8606   -0.3123 H         1 <0>         0.0235
     41 H9         -0.6793    1.4979    1.4270 H         1 <0>         0.0858
     42 H10         0.8040    1.7714    0.4819 H         1 <0>         0.0539
     43 H11        -4.7856   -3.3035   -1.4016 H         1 <0>         0.1366
     44 H12        -5.6318   -4.9546   -1.6403 H         1 <0>         0.1021
     45 H13        -5.0865   -6.6363   -2.9112 H         1 <0>         0.1332
     46 H14        -4.7989   -9.0626   -3.2107 H         1 <0>         0.1309
     47 H15        -2.9995  -10.2551   -2.0451 H         1 <0>         0.1316
     48 H16        -2.7548   -2.2793    4.6491 H         1 <0>         0.3987
     49 H17        -3.8199   -1.1913    5.3594 H         1 <0>         0.3762
     50 H18         0.7900   -2.8550    2.3280 H         1 <0>         0.3677
     51 H19         0.6859   -4.8453    2.0415 H         1 <0>         0.3896
     52 H20        -0.4350   -9.2220   -0.8949 H         1 <0>         0.3908
     53 H21        -2.5887   -1.9453   -2.3851 H         1 <0>         0.3714
@<TRIPOS>BOND
     1    1    2 1
     2    1   37 1
     3    1   38 1
     4    1   39 1
     5    2    3 1
     6    2    4 1
     7    3   40 1
     8    3   41 1
     9    3   42 1
    10    4    5 1
    11    4   28 1
    12    4    6 1
    13    6    7 1
    14    6   24 1
    15    6    8 1
    16    8    9 1
    17    8   10 1
    18    8   36 1
    19   10   11 1
    20   10   22 1
    21   10   12 1
    22   12   13 2
    23   12   14 1
    24   13   43 1
    25   13   44 1
    26   14   19 ar
    27   14   15 ar
    28   15   16 ar
    29   15   45 1
    30   16   17 ar
    31   16   46 1
    32   17   18 ar
    33   17   47 1
    34   18   19 ar
    35   18   35 1
    36   19   20 1
    37   20   21 2
    38   20   22 1
    39   22   23 2
    40   23   24 1
    41   23   34 1
    42   24   25 1
    43   24   33 1
    44   25   26 2
    45   25   27 1
    46   27   28 2
    47   27   30 1
    48   28   29 1
    49   30   31 2
    50   30   32 am
    51   32   48 1
    52   32   49 1
    53   33   50 1
    54   34   51 1
    55   35   52 1
    56   36   53 1
@<TRIPOS>MOLECULE
ZINC00120286
   31    33     0     0     0
SMALL
USER_CHARGES

@<TRIPOS>ATOM
      1 C1          0.0900    1.5471    0.2563 C.ar      1 <0>        -0.0907
      2 C2          0.6469    1.0128    1.4045 C.ar      1 <0>        -0.1092
      3 C3          1.8264    0.3000    1.3354 C.ar      1 <0>        -0.1132
      4 C4          2.4572    0.1188    0.1050 C.ar      1 <0>        -0.0687
      5 C5          1.8910    0.6597   -1.0489 C.ar      1 <0>        -0.0732
      6 C6          0.7112    1.3706   -0.9672 C.ar      1 <0>        -0.1122
      7 C7          3.7241   -0.6452    0.0241 C.ar      1 <0>         0.1131
      8 C8          3.8617   -1.8586    0.7391 C.ar      1 <0>         0.4712
      9 N1          4.9865   -2.5483    0.6747 N.ar      1 <0>        -0.5317
     10 C9          5.9989   -2.0951   -0.0711 C.ar      1 <0>         0.4172
     11 C10         5.8574   -0.8796   -0.7856 C.ar      1 <0>        -0.0978
     12 N2          4.7181   -0.1931   -0.7195 N.ar      1 <0>        -0.3358
     13 C11         6.9526   -0.4296   -1.5671 C.ar      1 <0>         0.5852
     14 N3          8.0539   -1.1660   -1.5917 N.ar      1 <0>        -0.5908
     15 C12         8.1431   -2.3008   -0.9052 C.ar      1 <0>         0.7067
     16 N4          7.1548   -2.7652   -0.1626 N.ar      1 <0>        -0.5776
     17 N5          9.3185   -3.0248   -0.9717 N.pl3     1 <0>        -0.7797
     18 N6          6.8727    0.7451   -2.2839 N.pl3     1 <0>        -0.7452
     19 N7          2.8131   -2.3247    1.5099 N.pl3     1 <0>        -0.7875
     20 H1         -0.8356    2.1005    0.3147 H         1 <0>         0.1348
     21 H2          0.1576    1.1542    2.3569 H         1 <0>         0.1369
     22 H3          2.2603   -0.1163    2.2325 H         1 <0>         0.1300
     23 H4          2.3752    0.5229   -2.0045 H         1 <0>         0.1307
     24 H5          0.2718    1.7900   -1.8601 H         1 <0>         0.1358
     25 H6         10.0570   -2.7020   -1.5114 H         1 <0>         0.4477
     26 H7          9.4050   -3.8556   -0.4786 H         1 <0>         0.4329
     27 H8          6.0606    1.2750   -2.2578 H         1 <0>         0.4406
     28 H9          7.6286    1.0419   -2.8144 H         1 <0>         0.4326
     29 H10         1.9462   -1.8920    1.4621 H         1 <0>         0.4309
     30 H11         2.9441   -3.0844    2.0986 H         1 <0>         0.4239
     31 H12         7.2671   -3.5986    0.3209 H         1 <0>         0.4433
@<TRIPOS>BOND
     1    1    6 ar
     2    1    2 ar
     3    1   20 1
     4    2    3 ar
     5    2   21 1
     6    3    4 ar
     7    3   22 1
     8    4    5 ar
     9    4    7 1
    10    5    6 ar
    11    5   23 1
    12    6   24 1
    13    7   12 ar
    14    7    8 ar
    15    8    9 ar
    16    8   19 1
    17    9   10 ar
    18   10   16 ar
    19   10   11 ar
    20   11   12 ar
    21   11   13 ar
    22   13   14 ar
    23   13   18 1
    24   14   15 ar
    25   15   16 ar
    26   15   17 1
    27   16   31 1
    28   17   25 1
    29   17   26 1
    30   18   27 1
    31   18   28 1
    32   19   29 1
    33   19   30 1
@<TRIPOS>MOLECULE
ZINC19796087
   63    65     0     0     0
SMALL
USER_CHARGES

@<TRIPOS>ATOM
      1 C1          0.2573    1.4152   -0.0519 C.3       1 <0>        -0.0967
      2 C2         -0.2176    0.0503   -0.4791 C.2       1 <0>         0.2779
      3 C3         -1.5528   -0.1459   -0.6868 C.2       1 <0>        -0.3722
      4 C4         -2.0005   -1.5309   -1.1169 C.3       1 <0>         0.1293
      5 H1         -2.5192   -1.4401   -2.0713 H         1 <0>         0.0469
      6 C5         -0.8987   -2.5643   -1.2722 C.2       1 <0>        -0.3956
      7 C6         -1.1751   -3.8576   -1.6580 C.2       1 <0>         0.4704
      8 O1         -2.4249   -4.1970   -2.0308 O.3       1 <0>        -0.6403
      9 O2         -0.1958   -4.7833   -1.6627 O.3       1 <0>        -0.3354
     10 C7         -0.5536   -6.1042   -2.0741 C.3       1 <0>         0.0383
     11 C8          0.4067   -2.1462   -1.0074 C.2       1 <0>         0.2947
     12 N1          0.6761   -0.9128   -0.6445 N.2       1 <0>        -0.6433
     13 C9          1.5364   -3.1338   -1.1470 C.3       1 <0>        -0.1042
     14 C10        -2.9833   -2.0459   -0.0972 C.ar      1 <0>        -0.0269
     15 C11        -2.6681   -2.0061    1.2484 C.ar      1 <0>        -0.0551
     16 C12        -3.5695   -2.4784    2.1836 C.ar      1 <0>        -0.1253
     17 C13        -4.7867   -2.9903    1.7736 C.ar      1 <0>        -0.0781
     18 C14        -5.1021   -3.0293    0.4285 C.ar      1 <0>        -0.0522
     19 C15        -4.2022   -2.5529   -0.5067 C.ar      1 <0>        -0.0028
     20 N2         -6.4050   -3.5778   -0.0105 N.pl3     1 <0>         0.0445
     21 O3         -7.2078   -3.9583    0.8094 O.2       1 <0>        -0.1831
     22 O4         -6.6662   -3.6454   -1.1890 O.3       1 <0>        -0.1704
     23 C16        -2.4790    0.8965   -0.5082 C.2       1 <0>         0.5253
     24 O5         -2.0869    2.0281   -0.2864 O.2       1 <0>        -0.5595
     25 O6         -3.8036    0.6432   -0.5826 O.3       1 <0>        -0.3439
     26 C17        -4.6838    1.7670   -0.5165 C.3       1 <0>         0.0756
     27 C18        -6.1340    1.2794   -0.5129 C.3       1 <0>         0.0550
     28 N3         -6.4989    0.8385    0.8401 N.3       1 <0>        -0.5271
     29 C19        -6.5712    1.9785    1.7637 C.3       1 <0>         0.0190
     30 C20        -7.7632    0.0906    0.8269 C.3       1 <0>         0.0962
     31 C21        -8.0622   -0.4152    2.2147 C.ar      1 <0>        -0.0800
     32 C22        -7.4894   -1.5919    2.6597 C.ar      1 <0>        -0.0918
     33 C23        -7.7636   -2.0558    3.9327 C.ar      1 <0>        -0.1178
     34 C24        -8.6102   -1.3428    4.7608 C.ar      1 <0>        -0.1208
     35 C25        -9.1823   -0.1656    4.3160 C.ar      1 <0>        -0.1273
     36 C26        -8.9047    0.3006    3.0446 C.ar      1 <0>        -0.1152
     37 H2          1.3410    1.4028    0.0648 H         1 <0>         0.0543
     38 H3         -0.0183    2.1493   -0.8090 H         1 <0>         0.0801
     39 H4         -0.2073    1.6808    0.8977 H         1 <0>         0.0718
     40 H5         -0.9348   -6.0760   -3.0949 H         1 <0>         0.0520
     41 H6          0.3248   -6.7483   -2.0319 H         1 <0>         0.0850
     42 H7         -1.3235   -6.4957   -1.4093 H         1 <0>         0.0499
     43 H8          1.5221   -3.5628   -2.1489 H         1 <0>         0.0772
     44 H9          2.4862   -2.6248   -0.9832 H         1 <0>         0.0634
     45 H10         1.4178   -3.9280   -0.4100 H         1 <0>         0.0782
     46 H11        -1.7174   -1.6062    1.5687 H         1 <0>         0.1253
     47 H12        -3.3230   -2.4479    3.2346 H         1 <0>         0.1313
     48 H13        -5.4907   -3.3600    2.5043 H         1 <0>         0.1365
     49 H14        -4.4502   -2.5799   -1.5575 H         1 <0>         0.1417
     50 H15        -4.4872    2.3293    0.3963 H         1 <0>         0.0653
     51 H16        -4.5186    2.4092   -1.3816 H         1 <0>         0.0596
     52 H17        -6.7916    2.0928   -0.8196 H         1 <0>         0.0512
     53 H18        -6.2389    0.4459   -1.2073 H         1 <0>         0.0865
     54 H19        -7.3233    2.6844    1.4115 H         1 <0>         0.0227
     55 H20        -6.8431    1.6239    2.7579 H         1 <0>         0.0724
     56 H21        -5.6008    2.4730    1.8072 H         1 <0>         0.0694
     57 H22        -8.5696    0.7459    0.4975 H         1 <0>         0.0405
     58 H23        -7.6788   -0.7538    0.1428 H         1 <0>         0.0767
     59 H24        -6.8280   -2.1490    2.0128 H         1 <0>         0.1305
     60 H25        -7.3167   -2.9756    4.2802 H         1 <0>         0.1204
     61 H26        -8.8250   -1.7056    5.7551 H         1 <0>         0.1179
     62 H27        -9.8440    0.3913    4.9629 H         1 <0>         0.1173
     63 H28        -9.3487    1.2223    2.6985 H         1 <0>         0.1146
@<TRIPOS>BOND
     1    1    2 1
     2    1   37 1
     3    1   38 1
     4    1   39 1
     5    2   12 1
     6    2    3 2
     7    3    4 1
     8    3   23 1
     9    4    5 1
    10    4    6 1
    11    4   14 1
    12    6    7 2
    13    6   11 1
    14    7    8 1
    15    7    9 1
    16    9   10 1
    17   10   40 1
    18   10   41 1
    19   10   42 1
    20   11   12 2
    21   11   13 1
    22   13   43 1
    23   13   44 1
    24   13   45 1
    25   14   19 ar
    26   14   15 ar
    27   15   16 ar
    28   15   46 1
    29   16   17 ar
    30   16   47 1
    31   17   18 ar
    32   17   48 1
    33   18   19 ar
    34   18   20 1
    35   19   49 1
    36   20   21 2
    37   20   22 1
    38   23   24 2
    39   23   25 1
    40   25   26 1
    41   26   27 1
    42   26   50 1
    43   26   51 1
    44   27   28 1
    45   27   52 1
    46   27   53 1
    47   28   29 1
    48   28   30 1
    49   29   54 1
    50   29   55 1
    51   29   56 1
    52   30   31 1
    53   30   57 1
    54   30   58 1
    55   31   36 ar
    56   31   32 ar
    57   32   33 ar
    58   32   59 1
    59   33   34 ar
    60   33   60 1
    61   34   35 ar
    62   34   61 1
    63   35   36 ar
    64   35   62 1
    65   36   63 1
@<TRIPOS>MOLECULE
ZINC00601265
   63    65     0     0     0
SMALL
USER_CHARGES

@<TRIPOS>ATOM
      1 C1          0.3477    0.3184   -0.5725 C.3       1 <0>        -0.0952
      2 C2          0.1335   -1.1442   -0.2795 C.2       1 <0>         0.2774
      3 C3         -1.1446   -1.6156   -0.1863 C.2       1 <0>        -0.3695
      4 C4         -1.3284   -3.0930    0.1092 C.3       1 <0>         0.1300
      5 H1         -1.9098   -3.1871    1.0264 H         1 <0>         0.0509
      6 C5         -0.0520   -3.8994    0.2716 C.2       1 <0>        -0.3955
      7 C6         -0.0842   -5.2500    0.5414 C.2       1 <0>         0.4702
      8 O1         -1.2599   -5.8592    0.7916 O.3       1 <0>        -0.6399
      9 O2          1.0600   -5.9618    0.5551 O.3       1 <0>        -0.3356
     10 C7          0.9523   -7.3575    0.8421 C.3       1 <0>         0.0382
     11 C8          1.1555   -3.2122    0.1352 C.2       1 <0>         0.2937
     12 N1          1.1917   -1.9257   -0.1273 N.2       1 <0>        -0.6436
     13 C9          2.4510   -3.9671    0.2873 C.3       1 <0>        -0.1041
     14 C10        -2.1258   -3.7024   -1.0150 C.ar      1 <0>        -0.0275
     15 C11        -1.6384   -3.6641   -2.3082 C.ar      1 <0>        -0.0603
     16 C12        -2.3697   -4.2230   -3.3393 C.ar      1 <0>        -0.1314
     17 C13        -3.5886   -4.8207   -3.0773 C.ar      1 <0>        -0.0813
     18 C14        -4.0755   -4.8597   -1.7844 C.ar      1 <0>        -0.0577
     19 C15        -3.3419   -4.3045   -0.7524 C.ar      1 <0>        -0.0011
     20 N2         -5.3807   -5.4991   -1.5041 N.pl3     1 <0>         0.0447
     21 O3         -6.0208   -5.9873   -2.4061 O.2       1 <0>        -0.1905
     22 O4         -5.8066   -5.5333   -0.3731 O.3       1 <0>        -0.1619
     23 C16        -2.2498   -0.7637   -0.3572 C.2       1 <0>         0.5224
     24 O5         -2.0766    0.4185   -0.5932 O.2       1 <0>        -0.5614
     25 O6         -3.5037   -1.2563   -0.2597 O.3       1 <0>        -0.3367
     26 C17        -4.5793   -0.3339   -0.4448 C.3       1 <0>         0.0766
     27 C18        -5.9129   -1.0696   -0.2988 C.3       1 <0>         0.0591
     28 N3         -6.0415   -1.5829    1.0716 N.3       1 <0>        -0.5218
     29 C19        -7.0931   -2.6053    1.1543 C.3       1 <0>         0.0213
     30 C20        -6.2931   -0.4908    2.0214 C.3       1 <0>         0.0901
     31 C21        -6.1754   -1.0131    3.4300 C.ar      1 <0>        -0.0729
     32 C22        -7.2871   -1.5253    4.0724 C.ar      1 <0>        -0.1145
     33 C23        -7.1792   -2.0044    5.3646 C.ar      1 <0>        -0.1243
     34 C24        -5.9594   -1.9717    6.0142 C.ar      1 <0>        -0.1221
     35 C25        -4.8475   -1.4604    5.3715 C.ar      1 <0>        -0.1196
     36 C26        -4.9545   -0.9852    4.0778 C.ar      1 <0>        -0.0918
     37 H2          1.4166    0.5270   -0.6182 H         1 <0>         0.0535
     38 H3         -0.1125    0.5687   -1.5284 H         1 <0>         0.0754
     39 H4         -0.1059    0.9174    0.2171 H         1 <0>         0.0758
     40 H5          0.3195   -7.8346    0.0937 H         1 <0>         0.0497
     41 H6          1.9436   -7.8102    0.8217 H         1 <0>         0.0850
     42 H7          0.5116   -7.4924    1.8299 H         1 <0>         0.0518
     43 H8          2.5271   -4.7200   -0.4972 H         1 <0>         0.0784
     44 H9          3.2875   -3.2730    0.2072 H         1 <0>         0.0632
     45 H10         2.4752   -4.4544    1.2621 H         1 <0>         0.0765
     46 H11        -0.6862   -3.1972   -2.5128 H         1 <0>         0.1274
     47 H12        -1.9893   -4.1925   -4.3496 H         1 <0>         0.1333
     48 H13        -4.1604   -5.2567   -3.8831 H         1 <0>         0.1382
     49 H14        -3.7206   -4.3382    0.2585 H         1 <0>         0.1450
     50 H15        -4.5151    0.4542    0.3054 H         1 <0>         0.0587
     51 H16        -4.5139    0.1056   -1.4401 H         1 <0>         0.0592
     52 H17        -6.7321   -0.3816   -0.5074 H         1 <0>         0.0507
     53 H18        -5.9482   -1.9009   -1.0029 H         1 <0>         0.0787
     54 H19        -6.8349   -3.4450    0.5091 H         1 <0>         0.0773
     55 H20        -7.1825   -2.9521    2.1837 H         1 <0>         0.0740
     56 H21        -8.0421   -2.1773    0.8314 H         1 <0>         0.0179
     57 H22        -5.5616    0.3020    1.8655 H         1 <0>         0.0819
     58 H23        -7.2965   -0.0956    1.8630 H         1 <0>         0.0391
     59 H24        -8.2401   -1.5509    3.5649 H         1 <0>         0.1162
     60 H25        -8.0479   -2.4039    5.8668 H         1 <0>         0.1180
     61 H26        -5.8752   -2.3454    7.0240 H         1 <0>         0.1178
     62 H27        -3.8946   -1.4345    5.8792 H         1 <0>         0.1204
     63 H28        -4.0850   -0.5892    3.5743 H         1 <0>         0.1223
@<TRIPOS>BOND
     1    1    2 1
     2    1   37 1
     3    1   38 1
     4    1   39 1
     5    2   12 1
     6    2    3 2
     7    3    4 1
     8    3   23 1
     9    4    5 1
    10    4    6 1
    11    4   14 1
    12    6    7 2
    13    6   11 1
    14    7    8 1
    15    7    9 1
    16    9   10 1
    17   10   40 1
    18   10   41 1
    19   10   42 1
    20   11   12 2
    21   11   13 1
    22   13   43 1
    23   13   44 1
    24   13   45 1
    25   14   19 ar
    26   14   15 ar
    27   15   16 ar
    28   15   46 1
    29   16   17 ar
    30   16   47 1
    31   17   18 ar
    32   17   48 1
    33   18   19 ar
    34   18   20 1
    35   19   49 1
    36   20   21 2
    37   20   22 1
    38   23   24 2
    39   23   25 1
    40   25   26 1
    41   26   27 1
    42   26   50 1
    43   26   51 1
    44   27   28 1
    45   27   52 1
    46   27   53 1
    47   28   29 1
    48   28   30 1
    49   29   54 1
    50   29   55 1
    51   29   56 1
    52   30   31 1
    53   30   57 1
    54   30   58 1
    55   31   36 ar
    56   31   32 ar
    57   32   33 ar
    58   32   59 1
    59   33   34 ar
    60   33   60 1
    61   34   35 ar
    62   34   61 1
    63   35   36 ar
    64   35   62 1
    65   36   63 1
@<TRIPOS>MOLECULE
ZINC03812872
   56    57     0     0     0
SMALL
USER_CHARGES
2-methoxyethyl isopropyl 2,6-dimethyl-4-(3-nitrophenyl)-1,4-dihydropyridine-3,5-dicarboxylate
@<TRIPOS>ATOM
      1 C1          2.3274   -0.2386    0.1031 C.2       1 <0>        -0.1160
      2 C2          2.3514    1.2673    0.0509 C.2       1 <0>         0.0073
      3 C3          1.1933    1.9555    0.0447 C.3       1 <0>        -0.1344
      4 C4          1.1730    3.4571   -0.0038 C.3       1 <0>         0.0327
      5 H1          0.4417    3.8292    0.7136 H         1 <0>         0.1166
      6 C5          2.5255    4.0184    0.3322 C.3       1 <0>        -0.1373
      7 C6          3.6273    3.2513    0.3060 C.2       1 <0>         0.1734
      8 N1          3.5511    1.9224   -0.0105 N.2       1 <0>        -0.4738
      9 C7          4.9656    3.8637    0.6300 C.3       1 <0>        -0.1264
     10 C8          2.6409    5.3847    0.6780 C.2       1 <0>         0.5074
     11 O1          2.3785    5.7504    1.8086 O.2       1 <0>        -0.4869
     12 O2          3.0421    6.2830   -0.2458 O.3       1 <0>        -0.3323
     13 C9          3.1364    7.6461    0.1729 C.3       1 <0>         0.0717
     14 C10         4.5429    7.9184    0.7102 C.3       1 <0>        -0.1738
     15 C11         2.8584    8.5659   -1.0178 C.3       1 <0>        -0.1500
     16 C12         0.7803    3.9042   -1.3883 C.ar      1 <0>        -0.1136
     17 C13         1.5520    3.5422   -2.4768 C.ar      1 <0>        -0.0409
     18 C14         1.1916    3.9520   -3.7466 C.ar      1 <0>        -0.1066
     19 C15         0.0591    4.7238   -3.9284 C.ar      1 <0>        -0.0420
     20 C16        -0.7126    5.0857   -2.8404 C.ar      1 <0>        -0.0398
     21 C17        -0.3549    4.6714   -1.5708 C.ar      1 <0>        -0.0407
     22 N2         -1.9253    5.9118   -3.0351 N.pl3     1 <0>         0.0264
     23 O3         -2.2432    6.2726   -4.1542 O.2       1 <0>        -0.1506
     24 O4         -2.6054    6.2306   -2.0763 O.3       1 <0>        -0.1559
     25 C18        -0.0301    1.2486    0.1013 C.2       1 <0>         0.4964
     26 O5         -0.6275    1.1497    1.1568 O.2       1 <0>        -0.4843
     27 O6         -0.5323    0.6788   -1.0141 O.3       1 <0>        -0.3407
     28 C19        -1.7691   -0.0250   -0.8827 C.3       1 <0>         0.0657
     29 C20        -2.1769   -0.5977   -2.2415 C.3       1 <0>         0.0619
     30 O7         -1.2237   -1.5813   -2.6493 O.3       1 <0>        -0.3845
     31 C21        -1.5129   -2.1821   -3.9132 C.3       1 <0>         0.0302
     32 H2          2.6916    3.9228    1.3136 H         1 <0>         0.1474
     33 H3          3.1400   -0.6362   -0.5049 H         1 <0>         0.1509
     34 H4          1.5032   -0.5671    0.7363 H         1 <0>         0.1353
     35 H5          0.8904    2.0897   -0.8988 H         1 <0>         0.1157
     36 H6          5.1864    3.7161    1.6872 H         1 <0>         0.0930
     37 H7          5.7387    3.3870    0.0274 H         1 <0>         0.1027
     38 H8          4.9397    4.9309    0.4098 H         1 <0>         0.0788
     39 H9          2.4045    7.8367    0.9578 H         1 <0>         0.0867
     40 H10         4.6148    8.9580    1.0297 H         1 <0>         0.0790
     41 H11         4.7409    7.2632    1.5585 H         1 <0>         0.0623
     42 H12         5.2748    7.7279   -0.0746 H         1 <0>         0.0700
     43 H13         1.8566    8.3718   -1.4005 H         1 <0>         0.0620
     44 H14         2.9305    9.6055   -0.6984 H         1 <0>         0.0822
     45 H15         3.5905    8.3753   -1.8027 H         1 <0>         0.0701
     46 H16         2.4366    2.9390   -2.3348 H         1 <0>         0.1446
     47 H17         1.7944    3.6688   -4.5968 H         1 <0>         0.1558
     48 H18        -0.2228    5.0436   -4.9207 H         1 <0>         0.1595
     49 H19        -0.9604    4.9506   -0.7211 H         1 <0>         0.1551
     50 H20        -1.6501   -0.8381   -0.1666 H         1 <0>         0.0851
     51 H21        -2.5408    0.6593   -0.5305 H         1 <0>         0.0882
     52 H22        -3.1618   -1.0578   -2.1612 H         1 <0>         0.0784
     53 H23        -2.2093    0.2043   -2.9790 H         1 <0>         0.0608
     54 H24        -2.4841   -2.6749   -3.8675 H         1 <0>         0.0439
     55 H25        -1.5316   -1.4130   -4.6853 H         1 <0>         0.0428
     56 H26        -0.7435   -2.9168   -4.1509 H         1 <0>         0.0903
@<TRIPOS>BOND
     1    1   33 1
     2    1   34 1
     3    1    2 2
     4    2    3 1
     5    2    8 1
     6    3    4 1
     7    3   25 1
     8    3   35 1
     9    4    5 1
    10    4    6 1
    11    4   16 1
    12    6   10 1
    13    6    7 1
    14    6   32 1
    15    7    9 1
    16    7    8 2
    17    9   36 1
    18    9   37 1
    19    9   38 1
    20   10   11 2
    21   10   12 1
    22   12   13 1
    23   13   14 1
    24   13   15 1
    25   13   39 1
    26   14   40 1
    27   14   41 1
    28   14   42 1
    29   15   43 1
    30   15   44 1
    31   15   45 1
    32   16   21 ar
    33   16   17 ar
    34   17   18 ar
    35   17   46 1
    36   18   19 ar
    37   18   47 1
    38   19   20 ar
    39   19   48 1
    40   20   21 ar
    41   20   22 1
    42   21   49 1
    43   22   23 2
    44   22   24 1
    45   25   26 2
    46   25   27 1
    47   27   28 1
    48   28   29 1
    49   28   50 1
    50   28   51 1
    51   29   30 1
    52   29   52 1
    53   29   53 1
    54   30   31 1
    55   31   54 1
    56   31   55 1
    57   31   56 1
@<TRIPOS>MOLECULE
ZINC03812872
   56    57     0     0     0
SMALL
USER_CHARGES
2-methoxyethyl isopropyl 2,6-dimethyl-4-(3-nitrophenyl)-1,4-dihydropyridine-3,5-dicarboxylate
@<TRIPOS>ATOM
      1 C1          2.3274   -0.2386    0.1031 C.2       1 <0>        -0.2737
      2 C2          2.3514    1.2673    0.0509 C.2       1 <0>         0.2816
      3 C3          1.1933    1.9555    0.0447 C.3       1 <0>        -0.1765
      4 C4          1.1728    3.4564   -0.0249 C.3       1 <0>         0.0644
      5 H1          0.4290    3.8282    0.6797 H         1 <0>         0.1094
      6 C5          2.5189    4.0186    0.3344 C.3       1 <0>        -0.2498
      7 C6          3.6215    3.2521    0.3276 C.2       1 <0>         0.1705
      8 N1          3.5516    1.9231    0.0102 N.2       1 <0>        -0.5084
      9 C7          4.9536    3.8654    0.6745 C.3       1 <0>        -0.1182
     10 C8          2.6275    5.3851    0.6818 C.2       1 <0>         0.5314
     11 O1          2.3453    5.7509    1.8075 O.2       1 <0>        -0.4917
     12 O2          3.0442    6.2834   -0.2352 O.3       1 <0>        -0.3395
     13 C9          3.1303    7.6466    0.1847 C.3       1 <0>         0.0749
     14 C10         4.5272    7.9199    0.7463 C.3       1 <0>        -0.1725
     15 C11         2.8725    8.5659   -1.0109 C.3       1 <0>        -0.1491
     16 C12         0.8039    3.9028   -1.4161 C.ar      1 <0>        -0.0956
     17 C13         1.5946    3.5411   -2.4909 C.ar      1 <0>        -0.0323
     18 C14         1.2560    3.9502   -3.7669 C.ar      1 <0>        -0.1092
     19 C15         0.1264    4.7213   -3.9686 C.ar      1 <0>        -0.0472
     20 C16        -0.6643    5.0831   -2.8942 C.ar      1 <0>        -0.0410
     21 C17        -0.3284    4.6693   -1.6185 C.ar      1 <0>        -0.0470
     22 N2         -1.8739    5.9083   -3.1102 N.pl3     1 <0>         0.0277
     23 O3         -2.1726    6.2686   -4.2347 O.2       1 <0>        -0.1542
     24 O4         -2.5707    6.2271   -2.1633 O.3       1 <0>        -0.1603
     25 C18        -0.0301    1.2486    0.1013 C.2       1 <0>         0.5134
     26 O5         -0.6275    1.1497    1.1568 O.2       1 <0>        -0.4975
     27 O6         -0.5323    0.6788   -1.0141 O.3       1 <0>        -0.3175
     28 C19        -1.7691   -0.0250   -0.8827 C.3       1 <0>         0.0597
     29 C20        -2.1769   -0.5977   -2.2415 C.3       1 <0>         0.0617
     30 O7         -1.2237   -1.5813   -2.6493 O.3       1 <0>        -0.3830
     31 C21        -1.5129   -2.1821   -3.9132 C.3       1 <0>         0.0305
     32 H2          2.4912   -0.7116    0.9688 H         1 <0>         0.1074
     33 H3          3.1400   -0.6362   -0.5049 H         1 <0>         0.1668
     34 H4          1.5032   -0.5671    0.7363 H         1 <0>         0.1581
     35 H5          0.9271    2.1685    0.9848 H         1 <0>         0.1628
     36 H6          5.1561    3.7183    1.7354 H         1 <0>         0.0883
     37 H7          5.7373    3.3890    0.0855 H         1 <0>         0.0934
     38 H8          4.9309    4.9326    0.4536 H         1 <0>         0.0782
     39 H9          2.3849    7.8369    0.9567 H         1 <0>         0.0842
     40 H10         4.5929    8.9597    1.0666 H         1 <0>         0.0771
     41 H11         4.7108    7.2651    1.5981 H         1 <0>         0.0614
     42 H12         5.2727    7.7296   -0.0257 H         1 <0>         0.0678
     43 H13         1.8776    8.3711   -1.4109 H         1 <0>         0.0613
     44 H14         2.9384    9.6056   -0.6906 H         1 <0>         0.0807
     45 H15         3.6182    8.3755   -1.7829 H         1 <0>         0.0687
     46 H16         2.4769    2.9384   -2.3334 H         1 <0>         0.1398
     47 H17         1.8737    3.6672   -4.6064 H         1 <0>         0.1523
     48 H18        -0.1384    5.0407   -4.9656 H         1 <0>         0.1561
     49 H19        -0.9487    4.9484   -0.7794 H         1 <0>         0.1503
     50 H20        -1.6502   -0.8381   -0.1666 H         1 <0>         0.0834
     51 H21        -2.5408    0.6593   -0.5305 H         1 <0>         0.0874
     52 H22        -3.1618   -1.0578   -2.1612 H         1 <0>         0.0757
     53 H23        -2.2093    0.2043   -2.9790 H         1 <0>         0.0622
     54 H24        -2.4841   -2.6749   -3.8675 H         1 <0>         0.0424
     55 H25        -1.5316   -1.4130   -4.6853 H         1 <0>         0.0433
     56 H26        -0.7435   -2.9168   -4.1509 H         1 <0>         0.0899
@<TRIPOS>BOND
     1    1   33 1
     2    1   34 1
     3    1    2 2
     4    2    3 1
     5    2    8 1
     6    3    4 1
     7    3   25 1
     8    3   35 1
     9    4    5 1
    10    4    6 1
    11    4   16 1
    12    6   10 1
    13    6   32 1
    14    6    7 1
    15    7    9 1
    16    7    8 2
    17    9   36 1
    18    9   37 1
    19    9   38 1
    20   10   11 2
    21   10   12 1
    22   12   13 1
    23   13   14 1
    24   13   15 1
    25   13   39 1
    26   14   40 1
    27   14   41 1
    28   14   42 1
    29   15   43 1
    30   15   44 1
    31   15   45 1
    32   16   21 ar
    33   16   17 ar
    34   17   18 ar
    35   17   46 1
    36   18   19 ar
    37   18   47 1
    38   19   20 ar
    39   19   48 1
    40   20   21 ar
    41   20   22 1
    42   21   49 1
    43   22   23 2
    44   22   24 1
    45   25   26 2
    46   25   27 1
    47   27   28 1
    48   28   29 1
    49   28   50 1
    50   28   51 1
    51   29   30 1
    52   29   52 1
    53   29   53 1
    54   30   31 1
    55   31   54 1
    56   31   55 1
    57   31   56 1
@<TRIPOS>MOLECULE
ZINC19360739
   56    59     0     0     0
SMALL
USER_CHARGES

@<TRIPOS>ATOM
      1 C1         -0.6450    1.2067    0.7385 C.ar      1 <0>        -0.1212
      2 C2          0.4537    2.0253    0.9303 C.ar      1 <0>        -0.1188
      3 C3          1.7253    1.4899    0.9286 C.ar      1 <0>        -0.1101
      4 C4          1.9018    0.1196    0.7332 C.ar      1 <0>        -0.0554
      5 C5          0.7895   -0.7006    0.5408 C.ar      1 <0>        -0.1151
      6 C6         -0.4768   -0.1527    0.5444 C.ar      1 <0>        -0.1183
      7 C7          3.2613   -0.4606    0.7297 C.2       1 <0>        -0.1106
      8 C8          3.4257   -1.7628    0.5439 C.2       1 <0>        -0.1355
      9 C9          4.8118   -2.3544    0.5403 C.3       1 <0>         0.0846
     10 N1          4.8851   -3.4361    1.5314 N.3       1 <0>        -0.5355
     11 C10         4.0261   -4.5640    1.1446 C.3       1 <0>         0.0568
     12 C11         4.0688   -5.6331    2.2389 C.3       1 <0>         0.0566
     13 N2          5.4567   -6.0748    2.4347 N.3       1 <0>        -0.5294
     14 C12         6.3157   -4.9470    2.8216 C.3       1 <0>         0.0574
     15 C13         6.2730   -3.8778    1.7272 C.3       1 <0>         0.0585
     16 C14         5.5300   -7.1566    3.4259 C.3       1 <0>         0.1710
     17 C15         4.6571   -8.3028    2.9839 C.ar      1 <0>        -0.0902
     18 C16         4.6784   -8.7188    1.6657 C.ar      1 <0>        -0.0616
     19 C17         3.8787   -9.7702    1.2594 C.ar      1 <0>        -0.1564
     20 C18         3.0561  -10.4069    2.1731 C.ar      1 <0>         0.1011
     21 C19         3.0356   -9.9894    3.4931 C.ar      1 <0>        -0.1535
     22 C20         3.8401   -8.9412    3.8983 C.ar      1 <0>        -0.0820
     23 F1          2.2736  -11.4345    1.7769 F         1 <0>        -0.1394
     24 C21         6.9556   -7.6292    3.5490 C.ar      1 <0>        -0.0900
     25 C22         7.7154   -7.8360    2.4127 C.ar      1 <0>        -0.0609
     26 C23         9.0230   -8.2690    2.5245 C.ar      1 <0>        -0.1564
     27 C24         9.5721   -8.4957    3.7751 C.ar      1 <0>         0.1010
     28 C25         8.8102   -8.2884    4.9125 C.ar      1 <0>        -0.1536
     29 C26         7.5045   -7.8503    4.7985 C.ar      1 <0>        -0.0822
     30 F2         10.8502   -8.9195    3.8855 F         1 <0>        -0.1394
     31 H1         -1.6385    1.6300    0.7449 H         1 <0>         0.1219
     32 H2          0.3157    3.0857    1.0814 H         1 <0>         0.1233
     33 H3          2.5822    2.1300    1.0777 H         1 <0>         0.1236
     34 H4          0.9195   -1.7619    0.3888 H         1 <0>         0.1224
     35 H5         -1.3385   -0.7864    0.3952 H         1 <0>         0.1228
     36 H6          4.1206    0.1764    0.8785 H         1 <0>         0.1188
     37 H7          2.5664   -2.3998    0.3951 H         1 <0>         0.1136
     38 H8          5.0342   -2.7529   -0.4496 H         1 <0>         0.0473
     39 H9          5.5375   -1.5811    0.7921 H         1 <0>         0.0809
     40 H10         3.0016   -4.2141    1.0178 H         1 <0>         0.0804
     41 H11         4.3842   -4.9889    0.2069 H         1 <0>         0.0440
     42 H12         3.6851   -5.2160    3.1700 H         1 <0>         0.0452
     43 H13         3.4552   -6.4833    1.9409 H         1 <0>         0.0839
     44 H14         5.9575   -4.5220    3.7593 H         1 <0>         0.0455
     45 H15         7.3402   -5.2969    2.9483 H         1 <0>         0.0841
     46 H16         6.6566   -4.2950    0.7961 H         1 <0>         0.0443
     47 H17         6.8865   -3.0277    2.0252 H         1 <0>         0.0807
     48 H18         5.1846   -6.7883    4.3919 H         1 <0>         0.0629
     49 H19         5.3199   -8.2218    0.9531 H         1 <0>         0.1388
     50 H20         3.8952  -10.0948    0.2295 H         1 <0>         0.1357
     51 H21         2.3941  -10.4851    4.2066 H         1 <0>         0.1360
     52 H22         3.8276   -8.6183    4.9288 H         1 <0>         0.1311
     53 H23         7.2867   -7.6593    1.4373 H         1 <0>         0.1386
     54 H24         9.6162   -8.4307    1.6366 H         1 <0>         0.1356
     55 H25         9.2374   -8.4652    5.8885 H         1 <0>         0.1360
     56 H26         6.9114   -7.6842    5.6856 H         1 <0>         0.1310
@<TRIPOS>BOND
     1    1    6 ar
     2    1    2 ar
     3    1   31 1
     4    2    3 ar
     5    2   32 1
     6    3    4 ar
     7    3   33 1
     8    4    5 ar
     9    4    7 1
    10    5    6 ar
    11    5   34 1
    12    6   35 1
    13    7    8 2
    14    7   36 1
    15    8    9 1
    16    8   37 1
    17    9   10 1
    18    9   38 1
    19    9   39 1
    20   10   15 1
    21   10   11 1
    22   11   12 1
    23   11   40 1
    24   11   41 1
    25   12   13 1
    26   12   42 1
    27   12   43 1
    28   13   14 1
    29   13   16 1
    30   14   15 1
    31   14   44 1
    32   14   45 1
    33   15   46 1
    34   15   47 1
    35   16   17 1
    36   16   24 1
    37   16   48 1
    38   17   22 ar
    39   17   18 ar
    40   18   19 ar
    41   18   49 1
    42   19   20 ar
    43   19   50 1
    44   20   21 ar
    45   20   23 1
    46   21   22 ar
    47   21   51 1
    48   22   52 1
    49   24   29 ar
    50   24   25 ar
    51   25   26 ar
    52   25   53 1
    53   26   27 ar
    54   26   54 1
    55   27   28 ar
    56   27   30 1
    57   28   29 ar
    58   28   55 1
    59   29   56 1
@<TRIPOS>MOLECULE
ZINC03812872
   56    57     0     0     0
SMALL
USER_CHARGES
2-methoxyethyl isopropyl 2,6-dimethyl-4-(3-nitrophenyl)-1,4-dihydropyridine-3,5-dicarboxylate
@<TRIPOS>ATOM
      1 C1          2.3274   -0.2386    0.1031 C.3       1 <0>        -0.1055
      2 C2          2.3514    1.2673    0.0509 C.2       1 <0>         0.1683
      3 C3          1.1933    1.9555    0.0447 C.2       1 <0>        -0.2449
      4 C4          1.1730    3.4571   -0.0038 C.3       1 <0>         0.0665
      5 H1          0.4417    3.8292    0.7137 H         1 <0>         0.1135
      6 C5          2.5226    4.0138    0.3752 C.3       1 <0>        -0.1438
      7 C6          3.6247    3.2472    0.3474 C.2       1 <0>         0.2399
      8 N1          3.5515    1.9233    0.0102 N.2       1 <0>        -0.5146
      9 C7          4.9599    3.8547    0.6925 C.3       1 <0>        -0.1401
     10 C8          2.6347    5.3748    0.7426 C.2       1 <0>         0.5069
     11 O1          2.3621    5.7234    1.8762 O.2       1 <0>        -0.4834
     12 O2          3.0440    6.2870   -0.1639 O.3       1 <0>        -0.3301
     13 C9          3.1343    7.6435    0.2762 C.3       1 <0>         0.0720
     14 C10         4.5360    7.9077    0.8302 C.3       1 <0>        -0.1743
     15 C11         2.8669    8.5812   -0.9029 C.3       1 <0>        -0.1506
     16 C12         0.7802    3.9042   -1.3883 C.ar      1 <0>        -0.0878
     17 C13         1.5520    3.5422   -2.4768 C.ar      1 <0>        -0.0347
     18 C14         1.1915    3.9520   -3.7465 C.ar      1 <0>        -0.1095
     19 C15         0.0590    4.7238   -3.9284 C.ar      1 <0>        -0.0465
     20 C16        -0.7127    5.0857   -2.8403 C.ar      1 <0>        -0.0409
     21 C17        -0.3549    4.6714   -1.5707 C.ar      1 <0>        -0.0446
     22 N2         -1.9253    5.9118   -3.0350 N.pl3     1 <0>         0.0274
     23 O3         -2.2433    6.2726   -4.1541 O.2       1 <0>        -0.1541
     24 O4         -2.6054    6.2306   -2.0762 O.3       1 <0>        -0.1586
     25 C18        -0.0304    1.2479    0.0849 C.2       1 <0>         0.5306
     26 O5         -0.6349    1.1370    1.1351 O.2       1 <0>        -0.4928
     27 O6         -0.5250    0.6909   -1.0404 O.3       1 <0>        -0.3349
     28 C19        -1.7625   -0.0143   -0.9254 C.3       1 <0>         0.0634
     29 C20        -2.1610   -0.5715   -2.2934 C.3       1 <0>         0.0627
     30 O7         -1.2050   -1.5503   -2.7060 O.3       1 <0>        -0.3853
     31 C21        -1.4855   -2.1366   -3.9786 C.3       1 <0>         0.0305
     32 H2          2.2038   -0.6022   -0.8202 H         1 <0>         0.0848
     33 H3          3.2689   -0.6029    0.5141 H         1 <0>         0.0896
     34 H4          1.5032   -0.5671    0.7363 H         1 <0>         0.0756
     35 H5          2.6669    3.8979    1.3579 H         1 <0>         0.1509
     36 H6          5.1712    3.6912    1.7492 H         1 <0>         0.1028
     37 H7          5.7385    3.3872    0.0897 H         1 <0>         0.1116
     38 H8          4.9358    4.9251    0.4882 H         1 <0>         0.0852
     39 H9          2.3955    7.8222    1.0573 H         1 <0>         0.0879
     40 H10         4.6048    8.9424    1.1658 H         1 <0>         0.0801
     41 H11         4.7265    7.2398    1.6702 H         1 <0>         0.0620
     42 H12         5.2749    7.7291    0.0491 H         1 <0>         0.0704
     43 H13         1.8686    8.3929   -1.2975 H         1 <0>         0.0634
     44 H14         2.9360    9.6158   -0.5672 H         1 <0>         0.0829
     45 H15         3.6060    8.4024   -1.6840 H         1 <0>         0.0706
     46 H16         2.4365    2.9390   -2.3348 H         1 <0>         0.1393
     47 H17         1.7943    3.6688   -4.5968 H         1 <0>         0.1524
     48 H18        -0.2229    5.0436   -4.9206 H         1 <0>         0.1566
     49 H19        -0.9604    4.9506   -0.7210 H         1 <0>         0.1520
     50 H20        -1.6484   -0.8356   -0.2179 H         1 <0>         0.0806
     51 H21        -2.5367    0.6659   -0.5707 H         1 <0>         0.0853
     52 H22        -3.1464   -1.0324   -2.2251 H         1 <0>         0.0755
     53 H23        -2.1885    0.2389   -3.0219 H         1 <0>         0.0607
     54 H24        -2.4569   -2.6299   -3.9451 H         1 <0>         0.0431
     55 H25        -1.4991   -1.3587   -4.7419 H         1 <0>         0.0428
     56 H26        -0.7145   -2.8685   -4.2194 H         1 <0>         0.0892
@<TRIPOS>BOND
     1    1    2 1
     2    1   32 1
     3    1   33 1
     4    1   34 1
     5    2    8 1
     6    2    3 2
     7    3    4 1
     8    3   25 1
     9    4    5 1
    10    4    6 1
    11    4   16 1
    12    6   10 1
    13    6   35 1
    14    6    7 1
    15    7    9 1
    16    7    8 2
    17    9   36 1
    18    9   37 1
    19    9   38 1
    20   10   11 2
    21   10   12 1
    22   12   13 1
    23   13   14 1
    24   13   15 1
    25   13   39 1
    26   14   40 1
    27   14   41 1
    28   14   42 1
    29   15   43 1
    30   15   44 1
    31   15   45 1
    32   16   21 ar
    33   16   17 ar
    34   17   18 ar
    35   17   46 1
    36   18   19 ar
    37   18   47 1
    38   19   20 ar
    39   19   48 1
    40   20   21 ar
    41   20   22 1
    42   21   49 1
    43   22   23 2
    44   22   24 1
    45   25   26 2
    46   25   27 1
    47   27   28 1
    48   28   29 1
    49   28   50 1
    50   28   51 1
    51   29   30 1
    52   29   52 1
    53   29   53 1
    54   30   31 1
    55   31   54 1
    56   31   55 1
    57   31   56 1
@<TRIPOS>MOLECULE
ZINC19360739
   57    60     0     0     0
SMALL
USER_CHARGES

@<TRIPOS>ATOM
      1 C1         -0.0167    1.3792    0.0096 C.ar      1 <0>        -0.1111
      2 C2          1.1683    2.0931    0.0021 C.ar      1 <0>        -0.1174
      3 C3          2.3774    1.4286   -0.0134 C.ar      1 <0>        -0.1032
      4 C4          2.4032    0.0335   -0.0212 C.ar      1 <0>        -0.0719
      5 C5          1.2045   -0.6806   -0.0131 C.ar      1 <0>        -0.1113
      6 C6          0.0021   -0.0041    0.0020 C.ar      1 <0>        -0.1199
      7 C7          3.6950   -0.6848   -0.0384 C.2       1 <0>        -0.0777
      8 C8          3.7162   -2.0103   -0.0457 C.2       1 <0>        -0.1693
      9 C9          5.0332   -2.7426   -0.0633 C.3       1 <0>         0.0894
     10 N1          5.0868   -3.6810    1.0657 N.3       1 <0>        -0.5336
     11 C10         4.0942   -4.7533    0.9069 C.3       1 <0>         0.0249
     12 C11         4.1414   -5.6730    2.1290 C.3       1 <0>        -0.0045
     13 N2          5.4882   -6.2444    2.2603 N.4       1 <0>        -0.3853
     14 C12         6.4652   -5.1629    2.4428 C.3       1 <0>        -0.0043
     15 C13         6.4373   -4.2389    1.2233 C.3       1 <0>         0.0273
     16 C14         5.5281   -7.1413    3.4231 C.3       1 <0>         0.1390
     17 C15         4.5271   -8.2520    3.2353 C.ar      1 <0>        -0.1483
     18 C16         4.3690   -8.8365    1.9925 C.ar      1 <0>        -0.0905
     19 C17         3.4516   -9.8555    1.8192 C.ar      1 <0>        -0.1395
     20 C18         2.6908  -10.2910    2.8909 C.ar      1 <0>         0.1333
     21 C19         2.8500   -9.7049    4.1352 C.ar      1 <0>        -0.1404
     22 C20         3.7717   -8.6896    4.3073 C.ar      1 <0>        -0.0532
     23 F1          1.7934  -11.2868    2.7225 F         1 <0>        -0.1222
     24 C21         6.9097   -7.7277    3.5580 C.ar      1 <0>        -0.1479
     25 C22         7.6094   -8.1138    2.4299 C.ar      1 <0>        -0.0911
     26 C23         8.8766   -8.6513    2.5523 C.ar      1 <0>        -0.1392
     27 C24         9.4456   -8.8030    3.8055 C.ar      1 <0>         0.1332
     28 C25         8.7439   -8.4159    4.9346 C.ar      1 <0>        -0.1401
     29 C26         7.4789   -7.8738    4.8093 C.ar      1 <0>        -0.0534
     30 F2         10.6842   -9.3287    3.9264 F         1 <0>        -0.1221
     31 H1         -0.9604    1.9041    0.0260 H         1 <0>         0.1259
     32 H2          1.1469    3.1729    0.0082 H         1 <0>         0.1273
     33 H3          3.3018    1.9870   -0.0200 H         1 <0>         0.1256
     34 H4          1.2178   -1.7605   -0.0194 H         1 <0>         0.1202
     35 H5         -0.9265   -0.5556    0.0079 H         1 <0>         0.1249
     36 H6          4.6214   -0.1298   -0.0450 H         1 <0>         0.1212
     37 H7          2.7898   -2.5653   -0.0392 H         1 <0>         0.1156
     38 H8          5.1300   -3.2938   -0.9987 H         1 <0>         0.0564
     39 H9          5.8492   -2.0250    0.0217 H         1 <0>         0.0932
     40 H10         3.0991   -4.3175    0.8179 H         1 <0>         0.1259
     41 H11         4.3212   -5.3289    0.0096 H         1 <0>         0.0604
     42 H12         3.9011   -5.0999    3.0245 H         1 <0>         0.1416
     43 H13         3.4159   -6.4772    2.0068 H         1 <0>         0.1365
     44 H14         6.2129   -4.5924    3.3367 H         1 <0>         0.1418
     45 H15         7.4624   -5.5889    2.5531 H         1 <0>         0.1369
     46 H16         6.7029   -4.8061    0.3311 H         1 <0>         0.0602
     47 H17         7.1516   -3.4279    1.3651 H         1 <0>         0.1261
     48 H18         5.2824   -6.5792    4.3241 H         1 <0>         0.1543
     49 H19         4.9623   -8.4964    1.1566 H         1 <0>         0.1248
     50 H20         3.3280  -10.3117    0.8481 H         1 <0>         0.1494
     51 H21         2.2569  -10.0435    4.9717 H         1 <0>         0.1518
     52 H22         3.8993   -8.2353    5.2787 H         1 <0>         0.1457
     53 H23         7.1652   -7.9958    1.4525 H         1 <0>         0.1247
     54 H24         9.4229   -8.9532    1.6709 H         1 <0>         0.1494
     55 H25         9.1866   -8.5340    5.9126 H         1 <0>         0.1518
     56 H26         6.9332   -7.5676    5.6896 H         1 <0>         0.1457
     57 H27         5.7151   -6.7652    1.4264 H         1 <0>         0.4130
@<TRIPOS>BOND
     1    1    6 ar
     2    1    2 ar
     3    1   31 1
     4    2    3 ar
     5    2   32 1
     6    3    4 ar
     7    3   33 1
     8    4    5 ar
     9    4    7 1
    10    5    6 ar
    11    5   34 1
    12    6   35 1
    13    7    8 2
    14    7   36 1
    15    8    9 1
    16    8   37 1
    17    9   10 1
    18    9   38 1
    19    9   39 1
    20   10   15 1
    21   10   11 1
    22   11   12 1
    23   11   40 1
    24   11   41 1
    25   12   13 1
    26   12   42 1
    27   12   43 1
    28   13   14 1
    29   13   16 1
    30   13   57 1
    31   14   15 1
    32   14   44 1
    33   14   45 1
    34   15   46 1
    35   15   47 1
    36   16   17 1
    37   16   24 1
    38   16   48 1
    39   17   22 ar
    40   17   18 ar
    41   18   19 ar
    42   18   49 1
    43   19   20 ar
    44   19   50 1
    45   20   21 ar
    46   20   23 1
    47   21   22 ar
    48   21   51 1
    49   22   52 1
    50   24   29 ar
    51   24   25 ar
    52   25   26 ar
    53   25   53 1
    54   26   27 ar
    55   26   54 1
    56   27   28 ar
    57   27   30 1
    58   28   29 ar
    59   28   55 1
    60   29   56 1
@<TRIPOS>MOLECULE
ZINC04676236
   31    32     0     0     0
SMALL
USER_CHARGES

@<TRIPOS>ATOM
      1 C1          0.7221    1.6992    0.5356 C.3       1 <0>        -0.1180
      2 C2          0.4780    0.2230    0.3559 C.ar      1 <0>        -0.0844
      3 C3          0.3605   -0.3085   -0.9150 C.ar      1 <0>        -0.1170
      4 C4          0.1366   -1.6624   -1.0798 C.ar      1 <0>        -0.1179
      5 C5          0.0307   -2.4852    0.0262 C.ar      1 <0>        -0.1132
      6 C6          0.1491   -1.9540    1.2966 C.ar      1 <0>        -0.0701
      7 C7          0.3773   -0.6004    1.4614 C.ar      1 <0>        -0.0802
      8 C8          0.5117   -0.0221    2.8465 C.3       1 <0>        -0.1203
      9 C9          0.0332   -2.8509    2.5021 C.3       1 <0>         0.0221
     10 H1          0.0275   -2.2438    3.4074 H         1 <0>         0.0880
     11 C10        -1.2670   -3.6530    2.4179 C.3       1 <0>        -0.1408
     12 C11         1.2056   -3.7969    2.5390 C.2       1 <0>        -0.0158
     13 C12         1.7891   -4.3938    1.4822 C.2       1 <0>        -0.0196
     14 N1          2.7945   -5.1552    1.9386 N.2       1 <0>        -0.4926
     15 C13         2.8563   -5.0529    3.2381 C.2       1 <0>         0.1828
     16 N2          1.8860   -4.2101    3.6526 N.pl3     1 <0>        -0.5678
     17 H2          1.7038   -3.9481    4.5686 H         1 <0>         0.4182
     18 H3          1.7950    1.8911    0.5492 H         1 <0>         0.0703
     19 H4          0.2656    2.2461   -0.2894 H         1 <0>         0.0669
     20 H5          0.2823    2.0282    1.4771 H         1 <0>         0.0685
     21 H6          0.4432    0.3343   -1.7789 H         1 <0>         0.1217
     22 H7          0.0441   -2.0774   -2.0726 H         1 <0>         0.1235
     23 H8         -0.1450   -3.5430   -0.1026 H         1 <0>         0.1247
     24 H9         -0.4786    0.1912    3.2488 H         1 <0>         0.0715
     25 H10         1.0194   -0.7389    3.4919 H         1 <0>         0.0643
     26 H11         1.0915    0.8998    2.8006 H         1 <0>         0.0707
     27 H12        -1.2613   -4.2601    1.5126 H         1 <0>         0.0642
     28 H13        -1.3508   -4.3017    3.2898 H         1 <0>         0.0579
     29 H14        -2.1150   -2.9688    2.3912 H         1 <0>         0.0653
     30 H15         1.4984   -4.2793    0.4484 H         1 <0>         0.1687
     31 H16         3.5680   -5.5558    3.8760 H         1 <0>         0.2081
@<TRIPOS>BOND
     1    1    2 1
     2    1   18 1
     3    1   19 1
     4    1   20 1
     5    2    7 ar
     6    2    3 ar
     7    3    4 ar
     8    3   21 1
     9    4    5 ar
    10    4   22 1
    11    5    6 ar
    12    5   23 1
    13    6    7 ar
    14    6    9 1
    15    7    8 1
    16    8   24 1
    17    8   25 1
    18    8   26 1
    19    9   10 1
    20    9   11 1
    21    9   12 1
    22   11   27 1
    23   11   28 1
    24   11   29 1
    25   12   16 1
    26   12   13 2
    27   13   14 1
    28   13   30 1
    29   14   15 2
    30   15   16 1
    31   15   31 1
    32   16   17 1
@<TRIPOS>MOLECULE
ZINC00119492
   31    32     0     0     0
SMALL
USER_CHARGES

@<TRIPOS>ATOM
      1 C1         -0.0187    1.5258    0.0104 C.3       1 <0>        -0.1646
      2 C2          0.0021   -0.0041    0.0020 C.3       1 <0>        -0.1073
      3 C3          0.7182   -0.4975   -1.2568 C.3       1 <0>        -0.1494
      4 H1          0.2647   -0.0640   -2.1481 H         1 <0>         0.1186
      5 C4          0.6865   -2.0455   -1.3288 C.3       1 <0>        -0.1155
      6 H2         -0.0446   -2.3906   -2.0599 H         1 <0>         0.1031
      7 C5          2.1352   -2.3425   -1.8015 C.3       1 <0>         0.0521
      8 O1          2.9015   -1.3116   -1.1432 O.3       1 <0>        -0.3431
      9 C6          2.1959   -0.1611   -1.1945 C.2       1 <0>         0.4831
     10 O2          2.6629    0.9533   -1.1914 O.2       1 <0>        -0.4404
     11 C7          0.4171   -2.6572    0.0475 C.3       1 <0>        -0.0378
     12 C8          0.2723   -4.1512   -0.0864 C.2       1 <0>        -0.0299
     13 C9          1.2686   -5.0572   -0.0892 C.2       1 <0>        -0.0224
     14 N1          0.7224   -6.2742   -0.2292 N.2       1 <0>        -0.4909
     15 C10        -0.5746   -6.1567   -0.3133 C.2       1 <0>         0.1836
     16 N2         -0.8976   -4.8486   -0.2225 N.pl3     1 <0>        -0.4587
     17 C11        -2.2478   -4.2816   -0.2651 C.3       1 <0>         0.0685
     18 H3          1.0039    1.9031    0.0027 H         1 <0>         0.0691
     19 H4         -0.5459    1.8868   -0.8726 H         1 <0>         0.0572
     20 H5         -0.5289    1.8773    0.9072 H         1 <0>         0.0599
     21 H6          0.5293   -0.3651    0.8851 H         1 <0>         0.0722
     22 H7         -1.0205   -0.3814    0.0098 H         1 <0>         0.0782
     23 H8          2.4542   -3.3312   -1.4718 H         1 <0>         0.1205
     24 H9          2.2147   -2.2509   -2.8847 H         1 <0>         0.0857
     25 H10         1.2489   -2.4311    0.7147 H         1 <0>         0.0946
     26 H11        -0.5018   -2.2384    0.4577 H         1 <0>         0.0845
     27 H12         2.3227   -4.8417    0.0048 H         1 <0>         0.1693
     28 H13        -1.2740   -6.9711   -0.4317 H         1 <0>         0.2059
     29 H14        -2.5146   -4.0557   -1.2975 H         1 <0>         0.0785
     30 H15        -2.9570   -5.0010    0.1444 H         1 <0>         0.0902
     31 H16        -2.2763   -3.3664    0.3262 H         1 <0>         0.0854
@<TRIPOS>BOND
     1    1    2 1
     2    1   18 1
     3    1   19 1
     4    1   20 1
     5    2    3 1
     6    2   21 1
     7    2   22 1
     8    3    4 1
     9    3    9 1
    10    3    5 1
    11    5    6 1
    12    5    7 1
    13    5   11 1
    14    7    8 1
    15    7   23 1
    16    7   24 1
    17    8    9 1
    18    9   10 2
    19   11   12 1
    20   11   25 1
    21   11   26 1
    22   12   16 1
    23   12   13 2
    24   13   14 1
    25   13   27 1
    26   14   15 2
    27   15   16 1
    28   15   28 1
    29   16   17 1
    30   17   29 1
    31   17   30 1
    32   17   31 1
@<TRIPOS>MOLECULE
ZINC00119486
   31    32     0     0     0
SMALL
USER_CHARGES

@<TRIPOS>ATOM
      1 C1         -0.0187    1.5258    0.0104 C.3       1 <0>        -0.1612
      2 C2          0.0021   -0.0041    0.0020 C.3       1 <0>        -0.1050
      3 C3          0.7182   -0.4975   -1.2568 C.3       1 <0>        -0.1487
      4 H1          1.7088   -0.0493   -1.3332 H         1 <0>         0.1145
      5 C4          0.8186   -2.0417   -1.2554 C.3       1 <0>        -0.1151
      6 H2          0.3642   -2.4586   -0.3567 H         1 <0>         0.1007
      7 C5          0.0050   -2.4299   -2.5139 C.3       1 <0>         0.0580
      8 O1         -0.8598   -1.2937   -2.7305 O.3       1 <0>        -0.3538
      9 C6         -0.1059   -0.1874   -2.4969 C.2       1 <0>         0.4885
     10 O2         -0.0910    0.8344   -3.1416 O.2       1 <0>        -0.4311
     11 C7          2.2752   -2.4919   -1.3843 C.3       1 <0>        -0.0346
     12 C8          2.3506   -3.9916   -1.2567 C.2       1 <0>        -0.0321
     13 C9          2.1787   -4.8910   -2.2442 C.2       1 <0>        -0.0202
     14 N1          2.3261   -6.1166   -1.7195 N.2       1 <0>        -0.4911
     15 C10         2.5827   -6.0108   -0.4444 C.2       1 <0>         0.1845
     16 N2          2.6127   -4.7013   -0.1159 N.pl3     1 <0>        -0.4581
     17 C11         2.8739   -4.1443    1.2136 C.3       1 <0>         0.0683
     18 H3          1.0039    1.9031    0.0027 H         1 <0>         0.0598
     19 H4         -0.5459    1.8868   -0.8726 H         1 <0>         0.0595
     20 H5         -0.5289    1.8773    0.9072 H         1 <0>         0.0623
     21 H6          0.5293   -0.3651    0.8851 H         1 <0>         0.0794
     22 H7         -1.0205   -0.3814    0.0098 H         1 <0>         0.0718
     23 H8          0.6669   -2.5752   -3.3677 H         1 <0>         0.0843
     24 H9         -0.5832   -3.3283   -2.3272 H         1 <0>         0.1158
     25 H10         2.6641   -2.1901   -2.3568 H         1 <0>         0.0931
     26 H11         2.8694   -2.0299   -0.5960 H         1 <0>         0.0815
     27 H12         1.9605   -4.6650   -3.2775 H         1 <0>         0.1682
     28 H13         2.7478   -6.8341    0.2349 H         1 <0>         0.2061
     29 H14         1.9335   -4.0383    1.7544 H         1 <0>         0.0788
     30 H15         3.5361   -4.8127    1.7639 H         1 <0>         0.0902
     31 H16         3.3466   -3.1673    1.1119 H         1 <0>         0.0857
@<TRIPOS>BOND
     1    1    2 1
     2    1   18 1
     3    1   19 1
     4    1   20 1
     5    2    3 1
     6    2   21 1
     7    2   22 1
     8    3    4 1
     9    3    9 1
    10    3    5 1
    11    5    6 1
    12    5    7 1
    13    5   11 1
    14    7    8 1
    15    7   23 1
    16    7   24 1
    17    8    9 1
    18    9   10 2
    19   11   12 1
    20   11   25 1
    21   11   26 1
    22   12   16 1
    23   12   13 2
    24   13   14 1
    25   13   27 1
    26   14   15 2
    27   15   16 1
    28   15   28 1
    29   16   17 1
    30   17   29 1
    31   17   30 1
    32   17   31 1
@<TRIPOS>MOLECULE
ZINC00119480
   31    32     0     0     0
SMALL
USER_CHARGES

@<TRIPOS>ATOM
      1 C1         -0.0187    1.5258    0.0104 C.3       1 <0>        -0.1613
      2 C2          0.0021   -0.0041    0.0020 C.3       1 <0>        -0.1060
      3 C3          0.7182   -0.4975   -1.2568 C.3       1 <0>        -0.1476
      4 H1          0.2652   -0.0643   -2.1486 H         1 <0>         0.1153
      5 C4          0.6897   -2.0431   -1.3282 C.3       1 <0>        -0.1163
      6 H2          0.1612   -2.4607   -0.4713 H         1 <0>         0.1099
      7 C5          2.1935   -2.4070   -1.2778 C.3       1 <0>         0.0562
      8 O1          2.8074   -1.2554   -0.6593 O.3       1 <0>        -0.3532
      9 C6          2.2006   -0.1633   -1.1941 C.2       1 <0>         0.4874
     10 O2          2.7288    0.8639   -1.5489 O.2       1 <0>        -0.4306
     11 C7          0.0554   -2.5151   -2.6381 C.3       1 <0>        -0.0337
     12 C8         -0.0691   -4.0169   -2.6233 C.2       1 <0>        -0.0336
     13 C9         -1.0777   -4.7337   -2.0918 C.2       1 <0>        -0.0158
     14 N1         -0.8104   -6.0336   -2.2862 N.2       1 <0>        -0.4918
     15 C10         0.3255   -6.1496   -2.9180 C.2       1 <0>         0.1853
     16 N2          0.8185   -4.9145   -3.1528 N.pl3     1 <0>        -0.4594
     17 C11         2.0708   -4.5950   -3.8426 C.3       1 <0>         0.0641
     18 H3          1.0039    1.9031    0.0027 H         1 <0>         0.0580
     19 H4         -0.5459    1.8868   -0.8726 H         1 <0>         0.0600
     20 H5         -0.5289    1.8773    0.9072 H         1 <0>         0.0629
     21 H6          0.5293   -0.3651    0.8851 H         1 <0>         0.0719
     22 H7         -1.0205   -0.3814    0.0098 H         1 <0>         0.0839
     23 H8          2.3515   -3.2977   -0.6697 H         1 <0>         0.1126
     24 H9          2.5853   -2.5551   -2.2841 H         1 <0>         0.0751
     25 H10        -0.9337   -2.0696   -2.7441 H         1 <0>         0.1004
     26 H11         0.6827   -2.2108   -3.4759 H         1 <0>         0.0741
     27 H12        -1.9491   -4.3321   -1.5959 H         1 <0>         0.1696
     28 H13         0.7921   -7.0793   -3.2085 H         1 <0>         0.2059
     29 H14         2.8833   -4.5481   -3.1174 H         1 <0>         0.0791
     30 H15         2.2865   -5.3676   -4.5805 H         1 <0>         0.0927
     31 H16         1.9744   -3.6314   -4.3429 H         1 <0>         0.0853
@<TRIPOS>BOND
     1    1    2 1
     2    1   18 1
     3    1   19 1
     4    1   20 1
     5    2    3 1
     6    2   21 1
     7    2   22 1
     8    3    4 1
     9    3    9 1
    10    3    5 1
    11    5    6 1
    12    5    7 1
    13    5   11 1
    14    7    8 1
    15    7   23 1
    16    7   24 1
    17    8    9 1
    18    9   10 2
    19   11   12 1
    20   11   25 1
    21   11   26 1
    22   12   16 1
    23   12   13 2
    24   13   14 1
    25   13   27 1
    26   14   15 2
    27   15   16 1
    28   15   28 1
    29   16   17 1
    30   17   29 1
    31   17   30 1
    32   17   31 1
@<TRIPOS>MOLECULE
ZINC19632644
   25    25     0     0     0
SMALL
USER_CHARGES

@<TRIPOS>ATOM
      1 C1         -0.0161    1.3371    0.0094 C.2       1 <0>        -0.0465
      2 C2          1.2587    1.7711   -0.0004 C.2       1 <0>         0.1297
      3 N1          2.0558    0.6583   -0.0140 N.pl3     1 <0>        -0.3879
      4 C3          1.2397   -0.4176   -0.0120 C.cat     1 <0>         0.2566
      5 N2          0.0021   -0.0041    0.0020 N.pl3     1 <0>        -0.4766
      6 C4          3.5206    0.6384   -0.0281 C.3       1 <0>         0.1109
      7 C5          4.0443    0.6237    1.4094 C.3       1 <0>        -1.0469
      8 O1          3.5585   -0.5400    2.0814 O.3       1 <0>        -0.5165
      9 P1          5.8670    0.5990    1.3918 P.3       1 <0>         2.2229
     10 O2          6.3941    1.9153    0.7783 O.2       1 <0>        -1.0481
     11 O3          6.4162    0.4512    2.8980 O.3       1 <0>        -0.8862
     12 O4          6.3577   -0.5966    0.5452 O.3       1 <0>        -1.0860
     13 P2          3.4652    2.1157    2.2823 P.3       1 <0>         2.2619
     14 O5          3.9904    3.3740    1.5557 O.2       1 <0>        -1.0559
     15 O6          1.9204    2.1367    2.2972 O.3       1 <0>        -1.0853
     16 O7          4.0163    2.1002    3.7950 O.3       1 <0>        -0.8893
     17 H1         -0.8984    1.9597    0.0252 H         1 <0>         0.2095
     18 H2          1.5887    2.7994    0.0016 H         1 <0>         0.2166
     19 H3          1.5585   -1.4495   -0.0206 H         1 <0>         0.2384
     20 H4          3.8668   -0.2536   -0.5501 H         1 <0>         0.1166
     21 H5          3.8911    1.5261   -0.5408 H         1 <0>         0.1390
     22 H6          3.8286   -1.3728    1.6708 H         1 <0>         0.3535
     23 H7          3.7464    2.8663    4.3198 H         1 <0>         0.4102
     24 H8         -0.7811   -0.5763    0.0069 H         1 <0>         0.4478
     25 H9          7.3807    0.4311    2.9648 H         1 <0>         0.4117
@<TRIPOS>BOND
     1    1    5 1
     2    1    2 2
     3    1   17 1
     4    2    3 1
     5    2   18 1
     6    3    4 1
     7    3    6 1
     8    4    5 2
     9    4   19 1
    10    5   24 1
    11    6    7 1
    12    6   20 1
    13    6   21 1
    14    7    8 1
    15    7    9 1
    16    7   13 1
    17    8   22 1
    18    9   10 2
    19    9   11 1
    20    9   12 1
    21   11   25 1
    22   13   14 2
    23   13   15 1
    24   13   16 1
    25   16   23 1
@<TRIPOS>MOLECULE
ZINC19632644
   24    24     0     0     0
SMALL
USER_CHARGES

@<TRIPOS>ATOM
      1 C1         -0.0161    1.3371    0.0094 C.2       1 <0>        -0.0484
      2 C2          1.2587    1.7711   -0.0004 C.2       1 <0>        -0.0574
      3 N1          2.0558    0.6583   -0.0140 N.pl3     1 <0>        -0.4442
      4 C3          1.2397   -0.4176   -0.0120 C.2       1 <0>         0.2267
      5 N2          0.0021   -0.0041    0.0020 N.2       1 <0>        -0.5107
      6 C4          3.5206    0.6384   -0.0281 C.3       1 <0>         0.1074
      7 C5          4.0443    0.6237    1.4094 C.3       1 <0>        -1.0361
      8 O1          3.5904    1.7933    2.0937 O.3       1 <0>        -0.5145
      9 P1          3.4246   -0.8609    2.2667 P.3       1 <0>         2.2520
     10 O2          3.9534   -0.8757    3.7183 O.2       1 <0>        -1.0836
     11 O3          1.8148   -0.8390    2.2822 O.3       1 <0>        -0.8855
     12 O4          3.9153   -2.1254    1.5269 O.3       1 <0>        -1.0671
     13 P2          5.8670    0.5990    1.3918 P.3       1 <0>         2.2593
     14 O5          6.3578   -0.6655    0.6520 O.2       1 <0>        -1.0711
     15 O6          6.3922    1.8572    0.6652 O.3       1 <0>        -1.1070
     16 O7          6.4181    0.5835    2.9045 O.3       1 <0>        -0.8745
     17 H1         -0.8984    1.9597    0.0252 H         1 <0>         0.1551
     18 H2          1.5887    2.7994    0.0016 H         1 <0>         0.1547
     19 H3          1.5585   -1.4495   -0.0206 H         1 <0>         0.1983
     20 H4          3.8668   -0.2536   -0.5501 H         1 <0>         0.1142
     21 H5          3.8911    1.5261   -0.5408 H         1 <0>         0.0887
     22 H6          3.8831    2.6226    1.6918 H         1 <0>         0.3465
     23 H7          7.3827    0.5700    2.9716 H         1 <0>         0.3986
     24 H8          1.4153   -1.6010    2.7237 H         1 <0>         0.3987
@<TRIPOS>BOND
     1    1    5 1
     2    1    2 2
     3    1   17 1
     4    2    3 1
     5    2   18 1
     6    3    4 1
     7    3    6 1
     8    4    5 2
     9    4   19 1
    10    6    7 1
    11    6   20 1
    12    6   21 1
    13    7    8 1
    14    7    9 1
    15    7   13 1
    16    8   22 1
    17    9   10 2
    18    9   11 1
    19    9   12 1
    20   11   24 1
    21   13   14 2
    22   13   15 1
    23   13   16 1
    24   16   23 1
@<TRIPOS>MOLECULE
ZINC00538566
   44    45     0     0     0
SMALL
USER_CHARGES
ethyl methyl 4-(2,3-dichlorophenyl)-2,6-dimethyl-3,4-dihydropyridine-3,5-dicarboxylate
@<TRIPOS>ATOM
      1 C1          0.1244    8.9164   -0.1190 C.3       1 <0>        -0.1514
      2 C2          0.9966    8.0800    0.8193 C.3       1 <0>         0.0599
      3 O1          0.2072    7.0434    1.4059 O.3       1 <0>        -0.3427
      4 C3          0.8306    6.2103    2.2649 C.2       1 <0>         0.5173
      5 O2          2.0129    6.3611    2.5084 O.2       1 <0>        -0.5039
      6 C4          0.1080    5.1595    2.8836 C.2       1 <0>        -0.2274
      7 C5          0.7282    4.3241    3.7442 C.2       1 <0>         0.1808
      8 N1          0.0691    3.3033    4.3205 N.2       1 <0>        -0.4900
      9 C6         -1.0583    2.8691    3.8656 C.2       1 <0>         0.2159
     10 C7         -1.6851    3.4738    2.6361 C.3       1 <0>        -0.1346
     11 H1         -2.5387    3.3360    3.1386 H         1 <0>         0.0965
     12 C8         -1.3590    4.9691    2.5841 C.3       1 <0>         0.0754
     13 H2         -1.9548    5.4990    3.3275 H         1 <0>         0.1220
     14 C9         -1.6678    5.5058    1.2101 C.ar      1 <0>        -0.0481
     15 C10        -2.8279    6.2260    0.9939 C.ar      1 <0>        -0.0809
     16 C11        -3.1121    6.7181   -0.2661 C.ar      1 <0>        -0.0985
     17 C12        -2.2367    6.4905   -1.3116 C.ar      1 <0>        -0.0941
     18 C13        -1.0757    5.7701   -1.0971 C.ar      1 <0>        -0.0313
     19 C14        -0.7879    5.2824    0.1667 C.ar      1 <0>         0.0077
     20 Cl1         0.6727    4.3845    0.4393 Cl        1 <0>        -0.0357
     21 Cl2         0.0239    5.4840   -2.4097 Cl        1 <0>        -0.0510
     22 C15        -2.4219    2.4052    1.8703 C.2       1 <0>         0.5065
     23 O3         -3.2901    2.7125    1.0882 O.2       1 <0>        -0.4897
     24 O4         -2.1137    1.1124    2.0570 O.3       1 <0>        -0.3486
     25 C16        -2.8643    0.1378    1.2855 C.3       1 <0>         0.0346
     26 C17        -1.7587    1.7394    4.5757 C.3       1 <0>        -0.1116
     27 C18         2.1851    4.5396    4.0644 C.3       1 <0>        -0.0917
     28 H3         -0.6956    9.3597    0.4459 H         1 <0>         0.0648
     29 H4          0.7265    9.7071   -0.5666 H         1 <0>         0.0773
     30 H5         -0.2794    8.2781   -0.9051 H         1 <0>         0.0648
     31 H6          1.4003    8.7183    1.6052 H         1 <0>         0.0653
     32 H7          1.8166    7.6366    0.2542 H         1 <0>         0.0653
     33 H8         -3.5126    6.4040    1.8100 H         1 <0>         0.1361
     34 H9         -4.0188    7.2804   -0.4340 H         1 <0>         0.1396
     35 H10        -2.4595    6.8749   -2.2960 H         1 <0>         0.1415
     36 H11        -2.5166   -0.8658    1.5311 H         1 <0>         0.1094
     37 H12        -2.7154    0.3236    0.2219 H         1 <0>         0.0681
     38 H13        -3.9243    0.2236    1.5246 H         1 <0>         0.0679
     39 H14        -1.4558    0.8665    4.1931 H         1 <0>         0.0974
     40 H15        -1.5181    1.7733    5.6382 H         1 <0>         0.0963
     41 H16        -2.8360    1.8397    4.4437 H         1 <0>         0.0760
     42 H17         2.4911    3.8411    4.7113 H         1 <0>         0.0631
     43 H18         2.7725    4.4693    3.1490 H         1 <0>         0.0907
     44 H19         2.3178    5.5271    4.5064 H         1 <0>         0.0911
@<TRIPOS>BOND
     1    1    2 1
     2    1   28 1
     3    1   29 1
     4    1   30 1
     5    2    3 1
     6    2   31 1
     7    2   32 1
     8    3    4 1
     9    4    5 2
    10    4    6 1
    11    6   12 1
    12    6    7 2
    13    7   27 1
    14    7    8 1
    15    8    9 2
    16    9   26 1
    17    9   10 1
    18   10   12 1
    19   10   22 1
    20   10   11 1
    21   12   13 1
    22   12   14 1
    23   14   19 ar
    24   14   15 ar
    25   15   16 ar
    26   15   33 1
    27   16   17 ar
    28   16   34 1
    29   17   18 ar
    30   17   35 1
    31   18   19 ar
    32   18   21 1
    33   19   20 1
    34   22   23 2
    35   22   24 1
    36   24   25 1
    37   25   36 1
    38   25   37 1
    39   25   38 1
    40   26   39 1
    41   26   40 1
    42   26   41 1
    43   27   42 1
    44   27   43 1
    45   27   44 1
@<TRIPOS>MOLECULE
ZINC00009073
   37    40     0     0     0
SMALL
USER_CHARGES

@<TRIPOS>ATOM
      1 C1         -0.0178    1.4648    0.0101 C.3       1 <0>         0.0190
      2 N1          0.0021   -0.0041    0.0020 N.3       1 <0>        -0.5347
      3 C2         -1.3554   -0.5468   -0.0771 C.3       1 <0>         0.0548
      4 C3         -1.3255   -2.0437   -0.3363 C.3       1 <0>        -0.0776
      5 C4         -0.2136   -2.7298    0.4050 C.ar      1 <0>        -0.0660
      6 C5         -0.1676   -4.1185    0.3764 C.ar      1 <0>        -0.1168
      7 C6          0.8160   -4.8083    1.0555 C.ar      1 <0>        -0.1183
      8 C7          1.7732   -4.1167    1.7707 C.ar      1 <0>        -0.1100
      9 C8          1.7473   -2.7271    1.7884 C.ar      1 <0>        -0.0402
     10 C9          0.7422   -2.0318    1.1101 C.ar      1 <0>        -0.0602
     11 C10         0.7070   -0.5281    1.1816 C.3       1 <0>         0.1292
     12 H1          0.1788   -0.2212    2.0843 H         1 <0>         0.0565
     13 C11         2.1199    0.0508    1.2084 C.3       1 <0>        -0.0723
     14 C12         2.9454   -0.6100    2.2786 C.ar      1 <0>        -0.0656
     15 C13         2.7694   -1.9666    2.5450 C.ar      1 <0>        -0.0523
     16 C14         3.5484   -2.5938    3.5165 C.ar      1 <0>         0.0945
     17 C15         4.4897   -1.8532    4.2246 C.ar      1 <0>         0.0806
     18 C16         4.6455   -0.5013    3.9627 C.ar      1 <0>        -0.1259
     19 C17         3.8757    0.1166    2.9923 C.ar      1 <0>        -0.1047
     20 O1          5.2558   -2.4554    5.1733 O.3       1 <0>        -0.4864
     21 O2          3.3897   -3.9199    3.7698 O.3       1 <0>        -0.4768
     22 H2          1.0047    1.8421    0.0024 H         1 <0>         0.0749
     23 H3         -0.5450    1.8259   -0.8730 H         1 <0>         0.0732
     24 H4         -0.5280    1.8163    0.9069 H         1 <0>         0.0286
     25 H5         -1.8730   -0.3560    0.8630 H         1 <0>         0.0357
     26 H6         -1.8920   -0.0533   -0.8874 H         1 <0>         0.0839
     27 H7         -2.2767   -2.4752   -0.0246 H         1 <0>         0.0807
     28 H8         -1.1956   -2.2145   -1.4050 H         1 <0>         0.0833
     29 H9         -0.9115   -4.6650   -0.1844 H         1 <0>         0.1227
     30 H10         0.8367   -5.8878    1.0279 H         1 <0>         0.1259
     31 H11         2.5378   -4.6525    2.3137 H         1 <0>         0.1407
     32 H12         2.5925   -0.1106    0.2395 H         1 <0>         0.0936
     33 H13         2.0656    1.1213    1.4066 H         1 <0>         0.0843
     34 H14         5.3712    0.0734    4.5190 H         1 <0>         0.1363
     35 H15         4.0042    1.1703    2.7931 H         1 <0>         0.1343
     36 H16         6.0862   -2.8185    4.8360 H         1 <0>         0.3882
     37 H17         3.9530   -4.4932    3.2322 H         1 <0>         0.3868
@<TRIPOS>BOND
     1    1    2 1
     2    1   22 1
     3    1   23 1
     4    1   24 1
     5    2   11 1
     6    2    3 1
     7    3    4 1
     8    3   25 1
     9    3   26 1
    10    4    5 1
    11    4   27 1
    12    4   28 1
    13    5   10 ar
    14    5    6 ar
    15    6    7 ar
    16    6   29 1
    17    7    8 ar
    18    7   30 1
    19    8    9 ar
    20    8   31 1
    21    9   15 1
    22    9   10 ar
    23   10   11 1
    24   11   12 1
    25   11   13 1
    26   13   14 1
    27   13   32 1
    28   13   33 1
    29   14   19 ar
    30   14   15 ar
    31   15   16 ar
    32   16   17 ar
    33   16   21 1
    34   17   18 ar
    35   17   20 1
    36   18   19 ar
    37   18   34 1
    38   19   35 1
    39   20   36 1
    40   21   37 1
@<TRIPOS>MOLECULE
ZINC12503187
   64    69     0     0     0
SMALL
USER_CHARGES

@<TRIPOS>ATOM
      1 C1          7.1529   -5.8981   -2.8062 C.3       1 <0>        -0.0691
      2 C2          5.9660   -5.0460   -2.4374 C.2       1 <0>         0.2061
      3 N1          4.7646   -5.0593   -3.0629 N.pl3     1 <0>        -0.5487
      4 H1          4.5155   -5.6152   -3.8178 H         1 <0>         0.4214
      5 C3          3.9734   -4.1504   -2.4367 C.2       1 <0>        -0.0067
      6 C4          4.7192   -3.6110   -1.4263 C.2       1 <0>         0.0380
      7 N2          5.9292   -4.1795   -1.4586 N.2       1 <0>        -0.4637
      8 C5          4.1665   -2.5923   -0.5021 C.ar      1 <0>        -0.0043
      9 C6          4.8672   -1.4531   -0.1435 C.ar      1 <0>        -0.0875
     10 C7          4.2807   -0.5311    0.7046 C.ar      1 <0>        -0.1101
     11 C8          3.0022   -0.7433    1.1898 C.ar      1 <0>        -0.1041
     12 C9          2.2984   -1.8833    0.8450 C.ar      1 <0>        -0.1046
     13 C10         2.8761   -2.8202    0.0082 C.ar      1 <0>         0.1395
     14 N3          2.2374   -4.0150   -0.3169 N.am      1 <0>        -0.5620
     15 C11         1.6212   -4.2463   -1.6275 C.3       1 <0>         0.1197
     16 C12         2.5562   -3.7487   -2.7377 C.3       1 <0>        -0.0592
     17 C13         2.1834   -4.9943    0.6074 C.2       1 <0>         0.5718
     18 O1          1.5505   -6.0081    0.3829 O.2       1 <0>        -0.5267
     19 C14         2.8922   -4.8364    1.8918 C.ar      1 <0>        -0.1518
     20 C15         2.2701   -5.2115    3.0859 C.ar      1 <0>        -0.0445
     21 C16         2.9342   -5.0629    4.2825 C.ar      1 <0>        -0.1302
     22 C17         4.2235   -4.5398    4.3041 C.ar      1 <0>         0.1763
     23 C18         4.8457   -4.1649    3.1172 C.ar      1 <0>        -0.1511
     24 C19         4.1895   -4.3168    1.9166 C.ar      1 <0>        -0.0570
     25 N4          4.8930   -4.3906    5.5171 N.am      1 <0>        -0.6700
     26 C20         4.2002   -4.1130    6.6394 C.2       1 <0>         0.5562
     27 O2          3.0049   -3.8992    6.5788 O.2       1 <0>        -0.4887
     28 C21         4.8927   -4.0686    7.9420 C.ar      1 <0>        -0.1295
     29 C22         6.0360   -4.8393    8.1561 C.ar      1 <0>        -0.0855
     30 C23         6.6790   -4.7940    9.3754 C.ar      1 <0>        -0.1237
     31 C24         6.1971   -3.9865   10.3926 C.ar      1 <0>        -0.0884
     32 C25         5.0675   -3.2172   10.1990 C.ar      1 <0>        -0.1132
     33 C26         4.4077   -3.2448    8.9736 C.ar      1 <0>         0.0134
     34 C27         3.1985   -2.4155    8.7592 C.ar      1 <0>        -0.0460
     35 C28         3.1487   -1.5117    7.6986 C.ar      1 <0>        -0.0797
     36 C29         2.0199   -0.7421    7.5040 C.ar      1 <0>        -0.1160
     37 C30         0.9394   -0.8656    8.3589 C.ar      1 <0>        -0.1131
     38 C31         0.9830   -1.7606    9.4129 C.ar      1 <0>        -0.1204
     39 C32         2.1038   -2.5400    9.6139 C.ar      1 <0>        -0.0991
     40 H2          7.1101   -6.8384   -2.2565 H         1 <0>         0.0820
     41 H3          7.1351   -6.1020   -3.8769 H         1 <0>         0.0751
     42 H4          8.0721   -5.3702   -2.5522 H         1 <0>         0.0932
     43 H5          5.8644   -1.2859   -0.5228 H         1 <0>         0.1315
     44 H6          4.8232    0.3582    0.9896 H         1 <0>         0.1292
     45 H7          2.5499   -0.0126    1.8439 H         1 <0>         0.1288
     46 H8          1.3010   -2.0409    1.2281 H         1 <0>         0.1280
     47 H9          1.4386   -5.3128   -1.7587 H         1 <0>         0.0983
     48 H10         0.6747   -3.7085   -1.6827 H         1 <0>         0.0813
     49 H11         2.4942   -2.6624   -2.8026 H         1 <0>         0.0937
     50 H12         2.2513   -4.1841   -3.6893 H         1 <0>         0.0887
     51 H13         1.2693   -5.6172    3.0698 H         1 <0>         0.1320
     52 H14         2.4539   -5.3522    5.2055 H         1 <0>         0.1417
     53 H15         5.8461   -3.7586    3.1375 H         1 <0>         0.1304
     54 H16         4.6749   -4.0305    0.9953 H         1 <0>         0.1428
     55 H17         5.8575   -4.4866    5.5538 H         1 <0>         0.4121
     56 H18         6.4169   -5.4714    7.3675 H         1 <0>         0.1300
     57 H19         7.5635   -5.3919    9.5382 H         1 <0>         0.1322
     58 H20         6.7084   -3.9590   11.3435 H         1 <0>         0.1321
     59 H21         4.6981   -2.5903   10.9971 H         1 <0>         0.1337
     60 H22         3.9919   -1.4139    7.0309 H         1 <0>         0.1109
     61 H23         1.9802   -0.0417    6.6829 H         1 <0>         0.1204
     62 H24         0.0584   -0.2607    8.2031 H         1 <0>         0.1207
     63 H25         0.1363   -1.8527   10.0771 H         1 <0>         0.1226
     64 H26         2.1349   -3.2418   10.4342 H         1 <0>         0.1207
@<TRIPOS>BOND
     1    1    2 1
     2    1   40 1
     3    1   41 1
     4    1   42 1
     5    2    7 2
     6    2    3 1
     7    3    4 1
     8    3    5 1
     9    5   16 1
    10    5    6 2
    11    6    7 1
    12    6    8 1
    13    8   13 ar
    14    8    9 ar
    15    9   10 ar
    16    9   43 1
    17   10   11 ar
    18   10   44 1
    19   11   12 ar
    20   11   45 1
    21   12   13 ar
    22   12   46 1
    23   13   14 1
    24   14   15 1
    25   14   17 am
    26   15   16 1
    27   15   47 1
    28   15   48 1
    29   16   49 1
    30   16   50 1
    31   17   18 2
    32   17   19 1
    33   19   24 ar
    34   19   20 ar
    35   20   21 ar
    36   20   51 1
    37   21   22 ar
    38   21   52 1
    39   22   23 ar
    40   22   25 1
    41   23   24 ar
    42   23   53 1
    43   24   54 1
    44   25   26 am
    45   25   55 1
    46   26   27 2
    47   26   28 1
    48   28   33 ar
    49   28   29 ar
    50   29   30 ar
    51   29   56 1
    52   30   31 ar
    53   30   57 1
    54   31   32 ar
    55   31   58 1
    56   32   33 ar
    57   32   59 1
    58   33   34 1
    59   34   39 ar
    60   34   35 ar
    61   35   36 ar
    62   35   60 1
    63   36   37 ar
    64   36   61 1
    65   37   38 ar
    66   37   62 1
    67   38   39 ar
    68   38   63 1
    69   39   64 1
@<TRIPOS>MOLECULE
ZINC00538566
   44    45     0     0     0
SMALL
USER_CHARGES
ethyl methyl 4-(2,3-dichlorophenyl)-2,6-dimethyl-3,4-dihydropyridine-3,5-dicarboxylate
@<TRIPOS>ATOM
      1 C1          0.1244    8.9164   -0.1190 C.3       1 <0>        -0.1522
      2 C2          0.9966    8.0800    0.8193 C.3       1 <0>         0.0585
      3 O1          0.2072    7.0434    1.4059 O.3       1 <0>        -0.3384
      4 C3          0.8306    6.2103    2.2649 C.2       1 <0>         0.5058
      5 O2          2.0129    6.3611    2.5084 O.2       1 <0>        -0.4903
      6 C4          0.1080    5.1595    2.8836 C.3       1 <0>        -0.1153
      7 C5          0.7282    4.3241    3.7442 C.2       1 <0>        -0.0713
      8 N1          0.0691    3.3034    4.3206 N.2       1 <0>        -0.4406
      9 C6         -1.0578    2.8685    3.8651 C.2       1 <0>         0.1197
     10 C7         -1.6839    3.4721    2.6347 C.3       1 <0>        -0.1265
     11 H1         -0.2834    5.4856    3.7441 H         1 <0>         0.1392
     12 C8         -1.3584    4.9676    2.5821 C.3       1 <0>         0.0593
     13 H2         -1.9549    5.4976    3.3246 H         1 <0>         0.1168
     14 C9         -1.6663    5.5032    1.2075 C.ar      1 <0>        -0.0557
     15 C10        -2.8265    6.2229    0.9899 C.ar      1 <0>        -0.0810
     16 C11        -3.1099    6.7140   -0.2706 C.ar      1 <0>        -0.0987
     17 C12        -2.2335    6.4862   -1.3153 C.ar      1 <0>        -0.0926
     18 C13        -1.0724    5.7664   -1.0994 C.ar      1 <0>        -0.0317
     19 C14        -0.7855    5.2796    0.1650 C.ar      1 <0>         0.0078
     20 Cl1         0.6753    4.3825    0.4392 Cl        1 <0>        -0.0293
     21 Cl2         0.0283    5.4799   -2.4110 Cl        1 <0>        -0.0498
     22 C15        -2.4196    2.4028    1.8689 C.2       1 <0>         0.5108
     23 O3         -3.2874    2.7092    1.0860 O.2       1 <0>        -0.4992
     24 O4         -2.1110    1.1102    2.0567 O.3       1 <0>        -0.3450
     25 C16        -2.8606    0.1348    1.2852 C.3       1 <0>         0.0344
     26 C17        -1.7582    1.7389    4.5753 C.3       1 <0>        -0.0954
     27 C18         2.1851    4.5396    4.0644 C.2       1 <0>        -0.0494
     28 H3         -0.6956    9.3597    0.4459 H         1 <0>         0.0654
     29 H4          0.7265    9.7071   -0.5666 H         1 <0>         0.0793
     30 H5         -0.2794    8.2781   -0.9051 H         1 <0>         0.0661
     31 H6          1.4003    8.7183    1.6052 H         1 <0>         0.0675
     32 H7          1.8166    7.6366    0.2542 H         1 <0>         0.0688
     33 H8         -3.5119    6.4011    1.8053 H         1 <0>         0.1355
     34 H9         -4.0167    7.2758   -0.4395 H         1 <0>         0.1397
     35 H10        -2.4557    6.8699   -2.3001 H         1 <0>         0.1418
     36 H11        -2.5127   -0.8685    1.5317 H         1 <0>         0.1079
     37 H12        -2.7109    0.3200    0.2216 H         1 <0>         0.0668
     38 H13        -3.9208    0.2203    1.5234 H         1 <0>         0.0661
     39 H14        -1.4547    0.8659    4.1935 H         1 <0>         0.0882
     40 H15        -1.5185    1.7735    5.6380 H         1 <0>         0.0858
     41 H16        -2.8355    1.8386    4.4424 H         1 <0>         0.0627
     42 H17        -2.5378    3.3343    3.1366 H         1 <0>         0.0882
     43 H18         2.7548    3.6561    3.7768 H         1 <0>         0.1381
     44 H19         2.3178    5.5271    4.5064 H         1 <0>         0.1422
@<TRIPOS>BOND
     1    1    2 1
     2    1   28 1
     3    1   29 1
     4    1   30 1
     5    2    3 1
     6    2   31 1
     7    2   32 1
     8    3    4 1
     9    4    5 2
    10    4    6 1
    11    6   12 1
    12    6    7 1
    13    6   11 1
    14    7    8 1
    15    7   27 2
    16    8    9 2
    17    9   26 1
    18    9   10 1
    19   10   12 1
    20   10   22 1
    21   10   42 1
    22   12   13 1
    23   12   14 1
    24   14   19 ar
    25   14   15 ar
    26   15   16 ar
    27   15   33 1
    28   16   17 ar
    29   16   34 1
    30   17   18 ar
    31   17   35 1
    32   18   19 ar
    33   18   21 1
    34   19   20 1
    35   22   23 2
    36   22   24 1
    37   24   25 1
    38   25   36 1
    39   25   37 1
    40   25   38 1
    41   26   39 1
    42   26   40 1
    43   26   41 1
    44   27   43 1
    45   27   44 1
@<TRIPOS>MOLECULE
ZINC00538569
   46    47     0     0     0
SMALL
USER_CHARGES
ethyl methyl 2,6-dimethyl-4-(3-nitrophenyl)-3,4-dihydropyridine-3,5-dicarboxylate
@<TRIPOS>ATOM
      1 C1          6.1167   -0.3901    3.1138 C.3       1 <0>        -0.1518
      2 C2          5.0282   -0.2366    4.1781 C.3       1 <0>         0.0608
      3 O1          3.9235    0.4848    3.6290 O.3       1 <0>        -0.3444
      4 C3          2.8715    0.7074    4.4438 C.2       1 <0>         0.5245
      5 O2          2.8926    0.2995    5.5898 O.2       1 <0>        -0.5016
      6 C4          1.7415    1.4167    3.9648 C.2       1 <0>        -0.2617
      7 C5          0.9743    2.1290    4.8217 C.2       1 <0>         0.1976
      8 N1         -0.1122    2.7923    4.3879 N.2       1 <0>        -0.5087
      9 C6         -0.6740    2.5259    3.2568 C.2       1 <0>         0.2630
     10 C7         -0.1427    1.4355    2.3628 C.3       1 <0>        -0.1416
     11 H1         -0.5609    0.8280    3.0381 H         1 <0>         0.0921
     12 C8          1.3818    1.3733    2.4950 C.3       1 <0>         0.0728
     13 H2          1.8282    2.2223    1.9771 H         1 <0>         0.1238
     14 C9          1.8889    0.0895    1.8901 C.ar      1 <0>        -0.0718
     15 C10         1.9784   -1.0518    2.6653 C.ar      1 <0>        -0.0619
     16 C11         2.4389   -2.2305    2.1093 C.ar      1 <0>        -0.1110
     17 C12         2.8201   -2.2655    0.7808 C.ar      1 <0>        -0.0489
     18 C13         2.7355   -1.1232    0.0073 C.ar      1 <0>        -0.0364
     19 C14         2.2699    0.0545    0.5620 C.ar      1 <0>        -0.0240
     20 N2          3.1440   -1.1606   -1.4149 N.pl3     1 <0>         0.0278
     21 O3          3.0700   -0.1538   -2.0965 O.2       1 <0>        -0.1534
     22 O4          3.5543   -2.1980   -1.9037 O.3       1 <0>        -0.1590
     23 C15        -1.2864    0.7745    1.6376 C.2       1 <0>         0.5143
     24 O5         -2.4159    0.9026    2.0468 O.2       1 <0>        -0.4940
     25 O6         -1.0502    0.0432    0.5371 O.3       1 <0>        -0.3465
     26 C16        -2.1994   -0.5644   -0.1099 C.3       1 <0>         0.0331
     27 C17        -1.8806    3.3180    2.8234 C.3       1 <0>        -0.1105
     28 C18         1.3502    2.1940    6.2796 C.3       1 <0>        -0.1098
     29 H3          6.9592   -0.9404    3.5325 H         1 <0>         0.0817
     30 H4          5.7152   -0.9352    2.2595 H         1 <0>         0.0625
     31 H5          6.4509    0.5960    2.7911 H         1 <0>         0.0677
     32 H6          5.4297    0.3086    5.0322 H         1 <0>         0.0697
     33 H7          4.6939   -1.2225    4.5008 H         1 <0>         0.0675
     34 H8          1.6847   -1.0234    3.7042 H         1 <0>         0.1322
     35 H9          2.5053   -3.1229    2.7139 H         1 <0>         0.1483
     36 H10         3.1842   -3.1854    0.3475 H         1 <0>         0.1554
     37 H11         2.2042    0.9472   -0.0424 H         1 <0>         0.1575
     38 H12        -2.8958    0.2147   -0.4199 H         1 <0>         0.0720
     39 H13        -1.8695   -1.1256   -0.9841 H         1 <0>         0.1065
     40 H14        -2.6955   -1.2382    0.5885 H         1 <0>         0.0665
     41 H15        -2.7106    2.8688    3.1542 H         1 <0>         0.0955
     42 H16        -1.9068    3.3739    1.7351 H         1 <0>         0.0866
     43 H17        -1.8224    4.3246    3.2376 H         1 <0>         0.0941
     44 H18         2.2648    2.5879    6.3708 H         1 <0>         0.0772
     45 H19         0.6317    2.8166    6.8127 H         1 <0>         0.0811
     46 H20         1.3437    1.1890    6.7016 H         1 <0>         0.1050
@<TRIPOS>BOND
     1    1    2 1
     2    1   29 1
     3    1   30 1
     4    1   31 1
     5    2    3 1
     6    2   32 1
     7    2   33 1
     8    3    4 1
     9    4    5 2
    10    4    6 1
    11    6   12 1
    12    6    7 2
    13    7   28 1
    14    7    8 1
    15    8    9 2
    16    9   27 1
    17    9   10 1
    18   10   12 1
    19   10   23 1
    20   10   11 1
    21   12   13 1
    22   12   14 1
    23   14   19 ar
    24   14   15 ar
    25   15   16 ar
    26   15   34 1
    27   16   17 ar
    28   16   35 1
    29   17   18 ar
    30   17   36 1
    31   18   19 ar
    32   18   20 1
    33   19   37 1
    34   20   21 2
    35   20   22 1
    36   23   24 2
    37   23   25 1
    38   25   26 1
    39   26   38 1
    40   26   39 1
    41   26   40 1
    42   27   41 1
    43   27   42 1
    44   27   43 1
    45   28   44 1
    46   28   45 1
    47   28   46 1
@<TRIPOS>MOLECULE
ZINC19361042
   55    58     0     0     0
SMALL
USER_CHARGES

@<TRIPOS>ATOM
      1 C1          1.2643    1.6622   -0.9850 C.3       1 <0>        -0.1159
      2 C2          1.1039    0.1670   -0.8859 C.ar      1 <0>        -0.0863
      3 C3          1.1541   -0.6108   -2.0277 C.ar      1 <0>        -0.1208
      4 C4          1.0070   -1.9821   -1.9368 C.ar      1 <0>        -0.1161
      5 C5          0.8100   -2.5760   -0.7039 C.ar      1 <0>        -0.1207
      6 C6          0.7607   -1.7984    0.4377 C.ar      1 <0>        -0.0744
      7 C7          0.9122   -0.4272    0.3472 C.ar      1 <0>        -0.0991
      8 C8          0.5456   -2.4457    1.7815 C.3       1 <0>         0.0948
      9 N1          1.8453   -2.7938    2.3710 N.3       1 <0>        -0.5336
     10 C9          2.5165   -3.8394    1.5863 C.3       1 <0>         0.0565
     11 C10         3.8973   -4.1162    2.1858 C.3       1 <0>         0.0592
     12 N2          3.7458   -4.5295    3.5879 N.3       1 <0>        -0.5279
     13 C11         3.0747   -3.4839    4.3726 C.3       1 <0>         0.0570
     14 C12         1.6939   -3.2071    3.7731 C.3       1 <0>         0.0592
     15 C13         5.0455   -4.8776    4.1774 C.3       1 <0>         0.1677
     16 H1          5.6964   -4.0033    4.1640 H         1 <0>         0.0595
     17 C14         5.6786   -5.9874    3.3783 C.ar      1 <0>        -0.0786
     18 C15         4.9205   -7.0736    2.9829 C.ar      1 <0>        -0.0895
     19 C16         5.5011   -8.0917    2.2499 C.ar      1 <0>        -0.1234
     20 C17         6.8398   -8.0233    1.9119 C.ar      1 <0>        -0.1171
     21 C18         7.5977   -6.9367    2.3066 C.ar      1 <0>        -0.1201
     22 C19         7.0160   -5.9166    3.0359 C.ar      1 <0>        -0.1123
     23 C20         4.8460   -5.3335    5.5999 C.ar      1 <0>        -0.0715
     24 C21         3.8133   -6.1987    5.9097 C.ar      1 <0>        -0.0776
     25 C22         3.6298   -6.6172    7.2141 C.ar      1 <0>        -0.1136
     26 C23         4.4798   -6.1700    8.2099 C.ar      1 <0>        -0.0327
     27 C24         5.5131   -5.3040    7.8992 C.ar      1 <0>        -0.1104
     28 C25         5.6991   -4.8907    6.5935 C.ar      1 <0>        -0.1000
     29 Cl1         4.2496   -6.6947    9.8486 Cl        1 <0>        -0.0706
     30 H2          2.3198    1.9208   -0.9000 H         1 <0>         0.0704
     31 H3          0.8825    2.0056   -1.9464 H         1 <0>         0.0660
     32 H4          0.7068    2.1416   -0.1804 H         1 <0>         0.0662
     33 H5          1.3079   -0.1469   -2.9908 H         1 <0>         0.1203
     34 H6          1.0455   -2.5896   -2.8289 H         1 <0>         0.1212
     35 H7          0.6943   -3.6474   -0.6330 H         1 <0>         0.1174
     36 H8          0.8775    0.1800    1.2397 H         1 <0>         0.1209
     37 H9          0.0223   -1.7519    2.4394 H         1 <0>         0.0834
     38 H10        -0.0511   -3.3495    1.6581 H         1 <0>         0.0444
     39 H11         1.9201   -4.7515    1.6105 H         1 <0>         0.0419
     40 H12         2.6282   -3.5048    0.5550 H         1 <0>         0.0841
     41 H13         4.3853   -4.9118    1.6228 H         1 <0>         0.0835
     42 H14         4.5030   -3.2114    2.1368 H         1 <0>         0.0429
     43 H15         2.9629   -3.8185    5.4039 H         1 <0>         0.0835
     44 H16         3.6711   -2.5718    4.3484 H         1 <0>         0.0441
     45 H17         1.2059   -2.4115    4.3361 H         1 <0>         0.0803
     46 H18         1.0881   -4.1119    3.8221 H         1 <0>         0.0438
     47 H19         3.8746   -7.1270    3.2469 H         1 <0>         0.1275
     48 H20         4.9090   -8.9406    1.9416 H         1 <0>         0.1214
     49 H21         7.2936   -8.8190    1.3399 H         1 <0>         0.1207
     50 H22         8.6436   -6.8835    2.0428 H         1 <0>         0.1218
     51 H23         7.6072   -5.0659    3.3411 H         1 <0>         0.1189
     52 H24         3.1496   -6.5475    5.1323 H         1 <0>         0.1379
     53 H25         2.8228   -7.2929    7.4560 H         1 <0>         0.1330
     54 H26         6.1768   -4.9543    8.6761 H         1 <0>         0.1334
     55 H27         6.5086   -4.2185    6.3500 H         1 <0>         0.1294
@<TRIPOS>BOND
     1    1    2 1
     2    1   30 1
     3    1   31 1
     4    1   32 1
     5    2    7 ar
     6    2    3 ar
     7    3    4 ar
     8    3   33 1
     9    4    5 ar
    10    4   34 1
    11    5    6 ar
    12    5   35 1
    13    6    7 ar
    14    6    8 1
    15    7   36 1
    16    8    9 1
    17    8   37 1
    18    8   38 1
    19    9   14 1
    20    9   10 1
    21   10   11 1
    22   10   39 1
    23   10   40 1
    24   11   12 1
    25   11   41 1
    26   11   42 1
    27   12   13 1
    28   12   15 1
    29   13   14 1
    30   13   43 1
    31   13   44 1
    32   14   45 1
    33   14   46 1
    34   15   16 1
    35   15   17 1
    36   15   23 1
    37   17   22 ar
    38   17   18 ar
    39   18   19 ar
    40   18   47 1
    41   19   20 ar
    42   19   48 1
    43   20   21 ar
    44   20   49 1
    45   21   22 ar
    46   21   50 1
    47   22   51 1
    48   23   28 ar
    49   23   24 ar
    50   24   25 ar
    51   24   52 1
    52   25   26 ar
    53   25   53 1
    54   26   27 ar
    55   26   29 1
    56   27   28 ar
    57   27   54 1
    58   28   55 1
@<TRIPOS>MOLECULE
ZINC00538569
   46    47     0     0     0
SMALL
USER_CHARGES
ethyl methyl 2,6-dimethyl-4-(3-nitrophenyl)-3,4-dihydropyridine-3,5-dicarboxylate
@<TRIPOS>ATOM
      1 C1          6.1167   -0.3900    3.1139 C.3       1 <0>        -0.1523
      2 C2          5.0283   -0.2365    4.1782 C.3       1 <0>         0.0592
      3 O1          3.9236    0.4848    3.6291 O.3       1 <0>        -0.3384
      4 C3          2.8715    0.7074    4.4439 C.2       1 <0>         0.5135
      5 O2          2.8926    0.2995    5.5898 O.2       1 <0>        -0.4915
      6 C4          1.7416    1.4167    3.9649 C.3       1 <0>        -0.1298
      7 C5          0.9743    2.1290    4.8217 C.2       1 <0>        -0.0458
      8 N1         -0.1203    2.7806    4.3905 N.2       1 <0>        -0.4598
      9 C6         -0.6774    2.5134    3.2572 C.2       1 <0>         0.1610
     10 C7         -0.1310    1.4352    2.3576 C.3       1 <0>        -0.1379
     11 H1          0.9375    0.8230    3.9960 H         1 <0>         0.1363
     12 C8          1.3940    1.3921    2.4911 C.3       1 <0>         0.0409
     13 H2          1.8299    2.2499    1.9787 H         1 <0>         0.1273
     14 C9          1.9185    0.1186    1.8794 C.ar      1 <0>        -0.0808
     15 C10         2.0221   -1.0259    2.6481 C.ar      1 <0>        -0.0738
     16 C11         2.4986   -2.1953    2.0858 C.ar      1 <0>        -0.1059
     17 C12         2.8815   -2.2176    0.7576 C.ar      1 <0>        -0.0469
     18 C13         2.7829   -1.0721   -0.0094 C.ar      1 <0>        -0.0336
     19 C14         2.3013    0.0963    0.5516 C.ar      1 <0>        -0.0174
     20 N2          3.1933   -1.0959   -1.4313 N.pl3     1 <0>         0.0268
     21 O3          3.1069   -0.0862   -2.1072 O.2       1 <0>        -0.1506
     22 O4          3.6176   -2.1250   -1.9257 O.3       1 <0>        -0.1566
     23 C15        -1.2652    0.7635    1.6273 C.2       1 <0>         0.5144
     24 O5         -2.3967    0.8745    2.0360 O.2       1 <0>        -0.4892
     25 O6         -1.0183    0.0417    0.5228 O.3       1 <0>        -0.3503
     26 C16        -2.1587   -0.5771   -0.1289 C.3       1 <0>         0.0332
     27 C17        -1.8938    3.2921    2.8270 C.3       1 <0>        -0.0922
     28 C18         1.3502    2.1940    6.2796 C.2       1 <0>        -0.0836
     29 H3          6.9593   -0.9403    3.5327 H         1 <0>         0.0832
     30 H4          5.7153   -0.9352    2.2597 H         1 <0>         0.0628
     31 H5          6.4510    0.5960    2.7912 H         1 <0>         0.0691
     32 H6          5.4297    0.3086    5.0323 H         1 <0>         0.0731
     33 H7          4.6940   -1.2225    4.5009 H         1 <0>         0.0690
     34 H8          1.7270   -1.0073    3.6868 H         1 <0>         0.1266
     35 H9          2.5760   -3.0902    2.6854 H         1 <0>         0.1501
     36 H10         3.2581   -3.1301    0.3194 H         1 <0>         0.1573
     37 H11         2.2246    0.9915   -0.0477 H         1 <0>         0.1601
     38 H12        -2.8650    0.1946   -0.4352 H         1 <0>         0.0717
     39 H13        -1.8206   -1.1289   -1.0060 H         1 <0>         0.1058
     40 H14        -2.6468   -1.2613    0.5651 H         1 <0>         0.0657
     41 H15        -2.7182    2.8303    3.1543 H         1 <0>         0.0828
     42 H16        -1.9196    3.3540    1.7391 H         1 <0>         0.0771
     43 H17        -1.8492    4.2970    3.2471 H         1 <0>         0.0829
     44 H18        -0.5419    0.8184    3.0289 H         1 <0>         0.0846
     45 H19         1.5379    3.2303    6.5606 H         1 <0>         0.1457
     46 H20         1.3437    1.1890    6.7016 H         1 <0>         0.1564
@<TRIPOS>BOND
     1    1    2 1
     2    1   29 1
     3    1   30 1
     4    1   31 1
     5    2    3 1
     6    2   32 1
     7    2   33 1
     8    3    4 1
     9    4    5 2
    10    4    6 1
    11    6   12 1
    12    6    7 1
    13    6   11 1
    14    7    8 1
    15    7   28 2
    16    8    9 2
    17    9   27 1
    18    9   10 1
    19   10   12 1
    20   10   23 1
    21   10   44 1
    22   12   13 1
    23   12   14 1
    24   14   19 ar
    25   14   15 ar
    26   15   16 ar
    27   15   34 1
    28   16   17 ar
    29   16   35 1
    30   17   18 ar
    31   17   36 1
    32   18   19 ar
    33   18   20 1
    34   19   37 1
    35   20   21 2
    36   20   22 1
    37   23   24 2
    38   23   25 1
    39   25   26 1
    40   26   38 1
    41   26   39 1
    42   26   40 1
    43   27   41 1
    44   27   42 1
    45   27   43 1
    46   28   45 1
    47   28   46 1
@<TRIPOS>MOLECULE
ZINC19361042
   56    59     0     0     0
SMALL
USER_CHARGES

@<TRIPOS>ATOM
      1 C1         -0.0184    1.5028    0.0103 C.3       1 <0>        -0.1211
      2 C2          0.0021   -0.0041    0.0020 C.ar      1 <0>        -0.0792
      3 C3          0.0057   -0.6888   -1.1991 C.ar      1 <0>        -0.1119
      4 C4          0.0245   -2.0707   -1.2067 C.ar      1 <0>        -0.1128
      5 C5          0.0400   -2.7685   -0.0132 C.ar      1 <0>        -0.1257
      6 C6          0.0373   -2.0840    1.1875 C.ar      1 <0>        -0.0912
      7 C7          0.0229   -0.7015    1.1951 C.ar      1 <0>        -0.0963
      8 C8          0.0538   -2.8445    2.4885 C.3       1 <0>         0.0982
      9 N1          1.4440   -3.0737    2.9041 N.3       1 <0>        -0.5322
     10 C9          2.1314   -3.9756    1.9692 C.3       1 <0>         0.0234
     11 C10         3.5895   -4.1407    2.4032 C.3       1 <0>        -0.0027
     12 N2          3.6360   -4.6905    3.7645 N.4       1 <0>        -0.3842
     13 C11         2.9672   -3.7671    4.6905 C.3       1 <0>        -0.0044
     14 C12         1.5040   -3.5989    4.2755 C.3       1 <0>         0.0280
     15 C13         5.0358   -4.8658    4.1740 C.3       1 <0>         0.1345
     16 H1          5.5437   -3.9015    4.1539 H         1 <0>         0.1514
     17 C14         5.7218   -5.8145    3.2251 C.ar      1 <0>        -0.1334
     18 C15         5.0505   -6.9281    2.7556 C.ar      1 <0>        -0.1220
     19 C16         5.6797   -7.7984    1.8852 C.ar      1 <0>        -0.1021
     20 C17         6.9800   -7.5549    1.4840 C.ar      1 <0>        -0.0911
     21 C18         7.6509   -6.4409    1.9528 C.ar      1 <0>        -0.1028
     22 C19         7.0202   -5.5683    2.8198 C.ar      1 <0>        -0.0856
     23 C20         5.0839   -5.4299    5.5706 C.ar      1 <0>        -0.1291
     24 C21         4.1877   -6.4116    5.9504 C.ar      1 <0>        -0.1080
     25 C22         4.2313   -6.9293    7.2312 C.ar      1 <0>        -0.0954
     26 C23         5.1720   -6.4649    8.1331 C.ar      1 <0>        -0.0145
     27 C24         6.0686   -5.4824    7.7524 C.ar      1 <0>        -0.0961
     28 C25         6.0277   -4.9695    6.4696 C.ar      1 <0>        -0.0718
     29 Cl1         5.2270   -7.1144    9.7421 Cl        1 <0>        -0.0384
     30 H2          1.0042    1.8801    0.0026 H         1 <0>         0.0735
     31 H3         -0.5455    1.8639   -0.8728 H         1 <0>         0.0704
     32 H4         -0.5286    1.8543    0.9071 H         1 <0>         0.0690
     33 H5         -0.0064   -0.1437   -2.1314 H         1 <0>         0.1255
     34 H6          0.0266   -2.6056   -2.1449 H         1 <0>         0.1252
     35 H7          0.0540   -3.8484   -0.0191 H         1 <0>         0.1167
     36 H8          0.0246   -0.1666    2.1333 H         1 <0>         0.1233
     37 H9         -0.4637   -2.2663    3.2539 H         1 <0>         0.0968
     38 H10        -0.4484   -3.8028    2.3555 H         1 <0>         0.0555
     39 H11         1.6385   -4.9478    1.9729 H         1 <0>         0.0591
     40 H12         2.0965   -3.5537    0.9647 H         1 <0>         0.1285
     41 H13         4.0974   -4.8206    1.7193 H         1 <0>         0.1366
     42 H14         4.0857   -3.1704    2.3862 H         1 <0>         0.1397
     43 H15         3.0139   -4.1700    5.7023 H         1 <0>         0.1363
     44 H16         3.4666   -2.7987    4.6618 H         1 <0>         0.1408
     45 H17         1.0113   -2.9022    4.9536 H         1 <0>         0.1262
     46 H18         1.0007   -4.5649    4.3173 H         1 <0>         0.0600
     47 H19         4.0347   -7.1183    3.0690 H         1 <0>         0.1136
     48 H20         5.1556   -8.6687    1.5189 H         1 <0>         0.1355
     49 H21         7.4718   -8.2353    0.8045 H         1 <0>         0.1365
     50 H22         8.6669   -6.2509    1.6396 H         1 <0>         0.1380
     51 H23         7.5431   -4.6960    3.1831 H         1 <0>         0.1340
     52 H24         3.4532   -6.7737    5.2463 H         1 <0>         0.1235
     53 H25         3.5309   -7.6960    7.5279 H         1 <0>         0.1464
     54 H26         6.8030   -5.1193    8.4561 H         1 <0>         0.1488
     55 H27         6.7306   -4.2059    6.1708 H         1 <0>         0.1439
     56 H28         3.1664   -5.5834    3.7826 H         1 <0>         0.4131
@<TRIPOS>BOND
     1    1    2 1
     2    1   30 1
     3    1   31 1
     4    1   32 1
     5    2    7 ar
     6    2    3 ar
     7    3    4 ar
     8    3   33 1
     9    4    5 ar
    10    4   34 1
    11    5    6 ar
    12    5   35 1
    13    6    7 ar
    14    6    8 1
    15    7   36 1
    16    8    9 1
    17    8   37 1
    18    8   38 1
    19    9   14 1
    20    9   10 1
    21   10   11 1
    22   10   39 1
    23   10   40 1
    24   11   12 1
    25   11   41 1
    26   11   42 1
    27   12   13 1
    28   12   15 1
    29   12   56 1
    30   13   14 1
    31   13   43 1
    32   13   44 1
    33   14   45 1
    34   14   46 1
    35   15   16 1
    36   15   17 1
    37   15   23 1
    38   17   22 ar
    39   17   18 ar
    40   18   19 ar
    41   18   47 1
    42   19   20 ar
    43   19   48 1
    44   20   21 ar
    45   20   49 1
    46   21   22 ar
    47   21   50 1
    48   22   51 1
    49   23   28 ar
    50   23   24 ar
    51   24   25 ar
    52   24   52 1
    53   25   26 ar
    54   25   53 1
    55   26   27 ar
    56   26   29 1
    57   27   28 ar
    58   27   54 1
    59   28   55 1
@<TRIPOS>MOLECULE
ZINC00004448
   41    44     0     0     0
SMALL
USER_CHARGES

@<TRIPOS>ATOM
      1 C1         -0.4391   -3.3377    1.8722 C.3       1 <0>        -0.0665
      2 C2         -0.1697   -2.2466    0.8683 C.2       1 <0>         0.1894
      3 N1         -0.0089   -2.4170   -0.4155 N.2       1 <0>        -0.4892
      4 C3          0.2118   -1.2278   -0.9953 C.2       1 <0>        -0.0442
      5 C4          0.1868   -0.2847   -0.0343 C.2       1 <0>        -0.0089
      6 N2         -0.0604   -0.9298    1.1473 N.pl3     1 <0>        -0.4502
      7 C5         -0.1811   -0.3082    2.4684 C.3       1 <0>         0.1208
      8 C6         -1.6568   -0.2375    2.8660 C.3       1 <0>        -0.1505
      9 H1         -2.1022   -1.2287    2.7806 H         1 <0>         0.1106
     10 C7         -1.7700    0.2464    4.3115 C.3       1 <0>        -0.1021
     11 C8         -3.2416    0.3294    4.7350 C.3       1 <0>        -0.0641
     12 C9         -3.9618    1.2252    3.7555 C.2       1 <0>         0.1486
     13 C10        -3.5215    1.3875    2.4463 C.2       1 <0>        -0.2760
     14 C11        -4.4444    2.3149    1.8134 C.ar      1 <0>        -0.0490
     15 C12        -4.5189    2.8565    0.5307 C.ar      1 <0>        -0.0694
     16 C13        -5.5626    3.7304    0.2795 C.ar      1 <0>        -0.1333
     17 C14        -6.4928    4.0558    1.2516 C.ar      1 <0>        -0.1057
     18 C15        -6.4370    3.5295    2.5307 C.ar      1 <0>        -0.1186
     19 C16        -5.3960    2.6468    2.8098 C.ar      1 <0>         0.0711
     20 N3         -5.0642    1.9669    3.9526 N.pl3     1 <0>        -0.4472
     21 C17        -5.8081    2.0387    5.2127 C.3       1 <0>         0.0636
     22 C18        -2.3800    0.7188    1.9432 C.2       1 <0>         0.4253
     23 O1         -1.9955    0.9054    0.8069 O.2       1 <0>        -0.4537
     24 H2         -1.5134   -3.4248    2.0346 H         1 <0>         0.0742
     25 H3         -0.0510   -4.2834    1.4939 H         1 <0>         0.0891
     26 H4          0.0522   -3.0941    2.8143 H         1 <0>         0.0704
     27 H5          0.3800   -1.0566   -2.0483 H         1 <0>         0.1656
     28 H6          0.3302    0.7771   -0.1704 H         1 <0>         0.1690
     29 H7          0.3645   -0.9030    3.2010 H         1 <0>         0.0973
     30 H8          0.2350    0.6987    2.4355 H         1 <0>         0.0958
     31 H9         -1.2451   -0.4489    4.9665 H         1 <0>         0.0916
     32 H10        -1.3139    1.2326    4.3982 H         1 <0>         0.0786
     33 H11        -3.6859   -0.6659    4.7191 H         1 <0>         0.0996
     34 H12        -3.3127    0.7488    5.7386 H         1 <0>         0.0928
     35 H13        -3.7956    2.6061   -0.2312 H         1 <0>         0.1375
     36 H14        -5.6535    4.1710   -0.7023 H         1 <0>         0.1236
     37 H15        -7.2882    4.7431    1.0040 H         1 <0>         0.1251
     38 H16        -7.1689    3.7920    3.2802 H         1 <0>         0.1289
     39 H17        -5.4075    2.8462    5.8256 H         1 <0>         0.0801
     40 H18        -6.8605    2.2295    5.0030 H         1 <0>         0.0900
     41 H19        -5.7096    1.0938    5.7471 H         1 <0>         0.0899
@<TRIPOS>BOND
     1    1    2 1
     2    1   24 1
     3    1   25 1
     4    1   26 1
     5    2    6 1
     6    2    3 2
     7    3    4 1
     8    4    5 2
     9    4   27 1
    10    5    6 1
    11    5   28 1
    12    6    7 1
    13    7    8 1
    14    7   29 1
    15    7   30 1
    16    8    9 1
    17    8   22 1
    18    8   10 1
    19   10   11 1
    20   10   31 1
    21   10   32 1
    22   11   12 1
    23   11   33 1
    24   11   34 1
    25   12   20 1
    26   12   13 2
    27   13   14 1
    28   13   22 1
    29   14   19 ar
    30   14   15 ar
    31   15   16 ar
    32   15   35 1
    33   16   17 ar
    34   16   36 1
    35   17   18 ar
    36   17   37 1
    37   18   19 ar
    38   18   38 1
    39   19   20 1
    40   20   21 1
    41   21   39 1
    42   21   40 1
    43   21   41 1
    44   22   23 2
@<TRIPOS>MOLECULE
ZINC14438802
   20    20     0     0     0
SMALL
NO_CHARGES

@<TRIPOS>ATOM
      1 C1         -0.0187    1.5258    0.0104 C.3       1 <0>         0.0474
      2 C2          0.0021   -0.0041    0.0020 C.3       1 <0>         0.1165
      3 H1          0.6044   -0.3639    0.8362 H         1 <0>         0.1232
      4 C3         -1.4266   -0.5342    0.1385 C.3       1 <0>         0.0039
      5 H2         -2.0371   -0.1736   -0.6893 H         1 <0>         0.1348
      6 C4         -1.4156   -2.0521    0.1557 C.2       1 <0>         0.3684
      7 C5         -2.0449   -2.3991    1.4969 C.3       1 <0>        -0.0142
      8 C6         -2.7168   -1.1039    1.9168 C.2       1 <0>         0.4701
      9 O1         -3.7094   -0.9920    2.5965 O.2       1 <0>        -0.4073
     10 O2         -1.9895   -0.1048    1.3831 O.3       1 <0>        -0.3222
     11 O3         -3.0109   -3.4412    1.3453 O.3       1 <0>        -0.5198
     12 O4         -1.0047   -2.8056   -0.6938 O.2       1 <0>        -0.3494
     13 O5          0.5662   -0.4660   -1.2270 O.3       1 <0>        -0.5273
     14 O6          1.3220    2.0204    0.0003 O.3       1 <0>        -0.5621
     15 H3         -0.5459    1.8868   -0.8726 H         1 <0>         0.0558
     16 H4         -0.5289    1.8773    0.9072 H         1 <0>         0.0692
     17 H5          0.0804   -0.1829   -2.0137 H         1 <0>         0.3816
     18 H6          1.3852    2.9853    0.0049 H         1 <0>         0.3863
     19 H7         -3.4423   -3.7008    2.1708 H         1 <0>         0.4004
     20 H8         -1.2795   -2.6885    2.2169 H         1 <0>         0.1446
@<TRIPOS>BOND
     1    1    2 1
     2    1   14 1
     3    1   15 1
     4    1   16 1
     5    2    3 1
     6    2   13 1
     7    2    4 1
     8    4   10 1
     9    4    5 1
    10    4    6 1
    11    6   12 2
    12    6    7 1
    13    7   11 1
    14    7    8 1
    15    7   20 1
    16    8    9 2
    17    8   10 1
    18   11   19 1
    19   13   17 1
    20   14   18 1
@<TRIPOS>MOLECULE
ZINC03869855
   36    39     0     0     0
SMALL
USER_CHARGES

@<TRIPOS>ATOM
      1 C1         -0.0166    1.3729    0.0096 C.ar      1 <0>        -0.1692
      2 C2          1.1712    2.0895    0.0021 C.ar      1 <0>        -0.0863
      3 C3          2.3858    1.4368   -0.0130 C.ar      1 <0>        -0.1576
      4 C4          2.4270    0.0485   -0.0209 C.ar      1 <0>         0.1523
      5 C5          1.2254   -0.6776   -0.0133 C.ar      1 <0>        -0.1667
      6 C6          0.0021   -0.0041    0.0020 C.ar      1 <0>        -0.0424
      7 C7          1.2825   -2.1476   -0.0219 C.2       1 <0>         0.3378
      8 C8          2.5139   -2.7424   -0.0369 C.2       1 <0>        -0.4754
      9 C9          3.6703   -1.9476   -0.0437 C.2       1 <0>         0.5067
     10 O1          4.7616   -2.4899   -0.0571 O.2       1 <0>        -0.5276
     11 O2          3.6080   -0.6065   -0.0361 O.3       1 <0>        -0.3038
     12 C10         2.6284   -4.2450   -0.0457 C.3       1 <0>         0.0675
     13 C11         2.7762   -4.7292   -1.4651 C.2       1 <0>        -0.2272
     14 C12         4.0194   -4.9638   -1.9847 C.2       1 <0>         0.1898
     15 C13         4.1091   -5.4356   -3.3753 C.ar      1 <0>        -0.1719
     16 C14         5.3459   -5.6954   -3.9694 C.ar      1 <0>        -0.0736
     17 C15         5.3954   -6.1364   -5.2731 C.ar      1 <0>        -0.1435
     18 C16         4.2251   -6.3224   -5.9944 C.ar      1 <0>        -0.0760
     19 C17         2.9974   -6.0690   -5.4197 C.ar      1 <0>        -0.1355
     20 C18         2.9252   -5.6240   -4.1060 C.ar      1 <0>         0.1593
     21 O3          1.7310   -5.3725   -3.5274 O.3       1 <0>        -0.2878
     22 C19         1.6387   -4.9468   -2.2574 C.2       1 <0>         0.5049
     23 O4          0.5365   -4.7389   -1.7810 O.2       1 <0>        -0.4060
     24 O5          5.1329   -4.7676   -1.2425 O.3       1 <0>        -0.4118
     25 O6          0.1511   -2.8887   -0.0146 O.3       1 <0>        -0.6227
     26 H1         -0.9605    1.8975    0.0259 H         1 <0>         0.1207
     27 H2          1.1444    3.1692    0.0078 H         1 <0>         0.1243
     28 H3          3.3044    2.0047   -0.0191 H         1 <0>         0.1286
     29 H4         -0.9239   -0.5599    0.0083 H         1 <0>         0.1340
     30 H5          3.5011   -4.5463    0.5337 H         1 <0>         0.0619
     31 H6          1.7316   -4.6803    0.3952 H         1 <0>         0.0729
     32 H7          6.2583   -5.5510   -3.4099 H         1 <0>         0.1327
     33 H8          6.3499   -6.3382   -5.7363 H         1 <0>         0.1317
     34 H9          4.2760   -6.6686   -7.0161 H         1 <0>         0.1355
     35 H10         2.0927   -6.2166   -5.9908 H         1 <0>         0.1414
     36 H11         5.9565   -4.9644   -1.7094 H         1 <0>         0.3832
@<TRIPOS>BOND
     1    1    6 ar
     2    1    2 ar
     3    1   26 1
     4    2    3 ar
     5    2   27 1
     6    3    4 ar
     7    3   28 1
     8    4   11 1
     9    4    5 ar
    10    5    6 ar
    11    5    7 1
    12    6   29 1
    13    7    8 2
    14    7   25 1
    15    8    9 1
    16    8   12 1
    17    9   10 2
    18    9   11 1
    19   12   13 1
    20   12   30 1
    21   12   31 1
    22   13   22 1
    23   13   14 2
    24   14   15 1
    25   14   24 1
    26   15   20 ar
    27   15   16 ar
    28   16   17 ar
    29   16   32 1
    30   17   18 ar
    31   17   33 1
    32   18   19 ar
    33   18   34 1
    34   19   20 ar
    35   19   35 1
    36   20   21 1
    37   21   22 1
    38   22   23 2
    39   24   36 1
@<TRIPOS>MOLECULE
ZINC21982937
   64    64     0     0     0
SMALL
USER_CHARGES
(2S)-3-benzyloxy-2-[2-[2-(bis(carboxymethyl)amino)ethyl-(carboxymethyl)amino]ethyl-(carboxymethyl)amino]propanoic acid
@<TRIPOS>ATOM
      1 C1          4.3659    2.3996    6.6404 C.ar      1 <0>        -0.1196
      2 C2          3.2943    3.1437    7.0975 C.ar      1 <0>        -0.1255
      3 C3          2.0141    2.6269    7.0279 C.ar      1 <0>        -0.0931
      4 C4          1.8056    1.3658    6.5016 C.ar      1 <0>        -0.0826
      5 C5          2.8778    0.6194    6.0497 C.ar      1 <0>        -0.0987
      6 C6          4.1574    1.1385    6.1141 C.ar      1 <0>        -0.1252
      7 C7          0.4100    0.8021    6.4261 C.3       1 <0>         0.0999
      8 O1         -0.1816    1.1607    5.1757 O.3       1 <0>        -0.3753
      9 C8         -1.5134    0.6729    5.0016 C.3       1 <0>         0.0651
     10 C9         -2.0438    1.1142    3.6360 C.3       1 <0>        -0.0167
     11 H1         -3.0926    0.8100    3.5038 H         1 <0>         0.1743
     12 C10        -1.9288    2.6118    3.5126 C.2       1 <0>         0.4745
     13 O2         -1.2595    3.0956    2.6307 O.co2     1 <0>        -0.6062
     14 O3         -2.5701    3.4081    4.3823 O.co2     1 <0>        -0.7380
     15 N1         -1.2562    0.4735    2.5744 N.4       1 <0>        -0.3514
     16 C11        -1.8895    0.6618    1.2624 C.3       1 <0>        -0.0035
     17 C12        -0.9512    0.1544    0.1656 C.3       1 <0>         0.0245
     18 N2         -1.6235    0.2504   -1.1370 N.3       1 <0>        -0.4981
     19 C13        -0.8535   -0.4417   -2.1792 C.3       1 <0>         0.0191
     20 C14        -1.6653   -0.4753   -3.4756 C.3       1 <0>         0.0034
     21 N3         -0.9449   -1.2637   -4.4842 N.4       1 <0>        -0.3612
     22 C15        -1.7920   -1.5184   -5.6570 C.3       1 <0>        -0.0397
     23 C16        -2.8055   -2.5825   -5.3230 C.2       1 <0>         0.4669
     24 O4         -2.8399   -3.0568   -4.2122 O.co2     1 <0>        -0.6150
     25 O5         -3.6702   -3.0034   -6.2595 O.co2     1 <0>        -0.7421
     26 C17         0.3077   -0.6022   -4.8733 C.3       1 <0>        -0.0571
     27 C18         1.2051   -1.5942   -5.5674 C.2       1 <0>         0.4605
     28 O6          0.8375   -2.7344   -5.7247 O.co2     1 <0>        -0.6164
     29 O7          2.4127   -1.2111   -6.0109 O.co2     1 <0>        -0.7354
     30 C19        -1.8636    1.6526   -1.5035 C.3       1 <0>        -0.0077
     31 C20        -0.5440    2.3540   -1.6975 C.2       1 <0>         0.4424
     32 O8          0.4887    1.7782   -1.4488 O.co2     1 <0>        -0.6331
     33 O9         -0.5158    3.6186   -2.1467 O.co2     1 <0>        -0.7659
     34 C21        -1.0501   -0.9527    2.8596 C.3       1 <0>        -0.0622
     35 C22        -2.3856   -1.6448    2.9509 C.2       1 <0>         0.4658
     36 O10        -3.4057   -1.0009    2.8828 O.co2     1 <0>        -0.6097
     37 O11        -2.4420   -2.9767    3.1080 O.co2     1 <0>        -0.7327
     38 H2          5.3660    2.8037    6.6941 H         1 <0>         0.1179
     39 H3          3.4573    4.1290    7.5087 H         1 <0>         0.1200
     40 H4          1.1769    3.2082    7.3850 H         1 <0>         0.1244
     41 H5          2.7153   -0.3677    5.6426 H         1 <0>         0.1239
     42 H6          4.9945    0.5573    5.7567 H         1 <0>         0.1211
     43 H7          0.4521   -0.2938    6.5109 H         1 <0>         0.0578
     44 H8         -0.1954    1.2105    7.2487 H         1 <0>         0.0596
     45 H9         -1.5116   -0.4257    5.0567 H         1 <0>         0.0657
     46 H10        -2.1591    1.0787    5.7943 H         1 <0>         0.0851
     47 H11        -2.8336    0.0985    1.2268 H         1 <0>         0.1387
     48 H12        -2.0943    1.7309    1.1041 H         1 <0>         0.1286
     49 H13        -0.0374    0.7667    0.1526 H         1 <0>         0.0948
     50 H14        -0.6869   -0.8945    0.3654 H         1 <0>         0.0743
     51 H15         0.0921    0.0930   -2.3525 H         1 <0>         0.0963
     52 H16        -0.6388   -1.4704   -1.8543 H         1 <0>         0.0815
     53 H17        -2.6457   -0.9351   -3.2824 H         1 <0>         0.1363
     54 H18        -1.8080    0.5507   -3.8456 H         1 <0>         0.1061
     55 H19        -2.3129   -0.5922   -5.9412 H         1 <0>         0.1114
     56 H20        -1.1656   -1.8586   -6.4948 H         1 <0>         0.1330
     57 H21         0.0855    0.2314   -5.5558 H         1 <0>         0.1185
     58 H22         0.8128   -0.2163   -3.9756 H         1 <0>         0.1343
     59 H23        -2.4415    1.6934   -2.4386 H         1 <0>         0.0812
     60 H24        -2.4287    2.1497   -0.7013 H         1 <0>         0.0887
     61 H25        -0.4566   -1.4061    2.0520 H         1 <0>         0.1261
     62 H26        -0.5144   -1.0621    3.8141 H         1 <0>         0.1193
     63 H27        -0.2694    0.9586    2.5461 H         1 <0>         0.4274
     64 H28        -0.6891   -2.2346   -4.0348 H         1 <0>         0.4436
@<TRIPOS>BOND
     1    1    6 ar
     2    1    2 ar
     3    1   38 1
     4    2    3 ar
     5    2   39 1
     6    3    4 ar
     7    3   40 1
     8    4    5 ar
     9    4    7 1
    10    5    6 ar
    11    5   41 1
    12    6   42 1
    13    7    8 1
    14    7   43 1
    15    7   44 1
    16    8    9 1
    17    9   10 1
    18    9   45 1
    19    9   46 1
    20   10   11 1
    21   10   12 1
    22   10   15 1
    23   12   13 2
    24   12   14 1
    25   15   16 1
    26   15   34 1
    27   15   63 1
    28   16   17 1
    29   16   47 1
    30   16   48 1
    31   17   18 1
    32   17   49 1
    33   17   50 1
    34   18   19 1
    35   18   30 1
    36   19   20 1
    37   19   51 1
    38   19   52 1
    39   20   21 1
    40   20   53 1
    41   20   54 1
    42   21   22 1
    43   21   26 1
    44   21   64 1
    45   22   23 1
    46   22   55 1
    47   22   56 1
    48   23   24 2
    49   23   25 1
    50   26   27 1
    51   26   57 1
    52   26   58 1
    53   27   28 2
    54   27   29 1
    55   30   31 1
    56   30   59 1
    57   30   60 1
    58   31   32 2
    59   31   33 1
    60   34   35 1
    61   34   61 1
    62   34   62 1
    63   35   36 2
    64   35   37 1
@<TRIPOS>MOLECULE
ZINC02016037
   42    45     0     0     0
SMALL
USER_CHARGES

@<TRIPOS>ATOM
      1 C1         -0.0167    1.3840    0.0097 C.ar      1 <0>        -0.1073
      2 C2          1.1323    2.1108    0.0026 C.ar      1 <0>        -0.0681
      3 C3          2.3939    1.4700   -0.0134 C.ar      1 <0>        -0.0660
      4 C4          3.7202    2.0695   -0.0229 C.2       1 <0>        -0.1137
      5 C5          4.8000    1.2748   -0.0376 C.2       1 <0>        -0.1250
      6 S1          4.1082   -0.3681   -0.0398 S.3       1 <0>         0.0597
      7 C6          2.3863    0.0584   -0.0209 C.ar      1 <0>        -0.1147
      8 C7          1.2140   -0.6681   -0.0139 C.ar      1 <0>         0.0047
      9 C8          0.0021   -0.0041    0.0020 C.ar      1 <0>        -0.0841
     10 Cl1         1.2605   -2.4034   -0.0241 Cl        1 <0>        -0.0536
     11 C9          3.8781    3.5682   -0.0167 C.3       1 <0>         0.1071
     12 O1          5.2678    3.9008   -0.0282 O.3       1 <0>        -0.3679
     13 C10         5.5293    5.3057   -0.0235 C.3       1 <0>         0.1211
     14 H1          4.7160    5.8283   -0.5270 H         1 <0>         0.0894
     15 C11         5.6363    5.7997    1.4206 C.3       1 <0>         0.0878
     16 N1          4.3409    5.6444    2.0871 N.pl3     1 <0>        -0.4623
     17 C12         3.3320    6.5686    2.1269 C.2       1 <0>        -0.0584
     18 C13         2.3289    6.0199    2.8385 C.2       1 <0>        -0.0254
     19 N2          2.7148    4.7941    3.2226 N.2       1 <0>        -0.4880
     20 C14         3.9170    4.5604    2.7718 C.2       1 <0>         0.1889
     21 C15         6.8242    5.5781   -0.7448 C.ar      1 <0>        -0.0828
     22 C16         7.7875    4.5904   -0.8323 C.ar      1 <0>        -0.0625
     23 C17         8.9752    4.8394   -1.4936 C.ar      1 <0>        -0.1046
     24 C18         9.2006    6.0776   -2.0690 C.ar      1 <0>        -0.0173
     25 C19         8.2370    7.0660   -1.9822 C.ar      1 <0>        -0.1011
     26 C20         7.0462    6.8145   -1.3242 C.ar      1 <0>        -0.0164
     27 Cl2         5.8337    8.0524   -1.2199 Cl        1 <0>        -0.0504
     28 Cl3        10.6928    6.3904   -2.8991 Cl        1 <0>        -0.0489
     29 H2         -0.9662    1.8985    0.0261 H         1 <0>         0.1389
     30 H3          1.0816    3.1896    0.0089 H         1 <0>         0.1280
     31 H4          5.8412    1.5618   -0.0460 H         1 <0>         0.1956
     32 H5         -0.9233   -0.5608    0.0085 H         1 <0>         0.1459
     33 H6          3.3968    3.9879   -0.9001 H         1 <0>         0.0633
     34 H7          3.4136    3.9788    0.8798 H         1 <0>         0.0844
     35 H8          6.3894    5.2157    1.9496 H         1 <0>         0.1080
     36 H9          5.9231    6.8513    1.4245 H         1 <0>         0.1053
     37 H10         3.3392    7.5494    1.6749 H         1 <0>         0.1731
     38 H11         1.3800    6.4853    3.0608 H         1 <0>         0.1703
     39 H12         4.4805    3.6517    2.9236 H         1 <0>         0.2012
     40 H13         7.6120    3.6239   -0.3833 H         1 <0>         0.1513
     41 H14         9.7277    4.0677   -1.5610 H         1 <0>         0.1455
     42 H15         8.4125    8.0324   -2.4311 H         1 <0>         0.1491
@<TRIPOS>BOND
     1    1    9 ar
     2    1    2 ar
     3    1   29 1
     4    2    3 ar
     5    2   30 1
     6    3    7 ar
     7    3    4 1
     8    4    5 2
     9    4   11 1
    10    5    6 1
    11    5   31 1
    12    6    7 1
    13    7    8 ar
    14    8    9 ar
    15    8   10 1
    16    9   32 1
    17   11   12 1
    18   11   33 1
    19   11   34 1
    20   12   13 1
    21   13   14 1
    22   13   15 1
    23   13   21 1
    24   15   16 1
    25   15   35 1
    26   15   36 1
    27   16   20 1
    28   16   17 1
    29   17   18 2
    30   17   37 1
    31   18   19 1
    32   18   38 1
    33   19   20 2
    34   20   39 1
    35   21   26 ar
    36   21   22 ar
    37   22   23 ar
    38   22   40 1
    39   23   24 ar
    40   23   41 1
    41   24   25 ar
    42   24   28 1
    43   25   26 ar
    44   25   42 1
    45   26   27 1
@<TRIPOS>MOLECULE
ZINC02570830
   33    36     0     0     0
SMALL
USER_CHARGES

@<TRIPOS>ATOM
      1 C1          0.1272    1.3631   -0.2132 C.3       1 <0>        -0.0867
      2 C2          0.0797   -0.1407   -0.1284 C.2       1 <0>         0.2388
      3 N1          0.0409   -0.9765   -1.1344 N.2       1 <0>        -0.2547
      4 N2          0.0153   -2.1887   -0.6988 N.2       1 <0>        -0.2092
      5 C3          0.0409   -2.1895    0.6004 C.2       1 <0>         0.1252
      6 N3          0.0748   -0.8848    1.0040 N.pl3     1 <0>        -0.4047
      7 C4          0.0795   -0.4986    2.3262 C.2       1 <0>         0.1047
      8 C5          0.6862   -1.1524    3.3969 C.2       1 <0>        -0.1742
      9 C6          0.4778   -0.5208    4.6897 C.2       1 <0>        -0.0568
     10 C7         -0.2315    0.6182    4.7626 C.2       1 <0>        -0.1677
     11 S1         -0.6786    0.9240    3.0638 S.3       1 <0>         0.2991
     12 Br1        -0.6526    1.6459    6.2931 Br        1 <0>         0.1019
     13 C8          1.4948   -2.3786    3.2188 C.2       1 <0>         0.4756
     14 N4          1.2579   -3.3239    2.3694 N.pl3     1 <0>        -0.5305
     15 C9          0.0474   -3.3686    1.5365 C.3       1 <0>         0.1530
     16 C10         2.6817   -2.5370    4.0911 C.ar      1 <0>        -0.1723
     17 C11         2.7267   -3.5650    5.0327 C.ar      1 <0>        -0.0575
     18 C12         3.8345   -3.7075    5.8422 C.ar      1 <0>        -0.1045
     19 C13         4.9006   -2.8333    5.7222 C.ar      1 <0>        -0.0465
     20 C14         4.8630   -1.8115    4.7914 C.ar      1 <0>        -0.1006
     21 C15         3.7619   -1.6618    3.9703 C.ar      1 <0>         0.0141
     22 Cl1         3.7191   -0.3837    2.7963 Cl        1 <0>        -0.0378
     23 H1          1.1657    1.6922   -0.2512 H         1 <0>         0.1100
     24 H2         -0.3916    1.6929   -1.1132 H         1 <0>         0.1253
     25 H3         -0.3579    1.7920    0.6637 H         1 <0>         0.0828
     26 H4          0.8895   -0.9637    5.5845 H         1 <0>         0.1740
     27 H5         -0.8401   -3.3351    2.1683 H         1 <0>         0.1511
     28 H6          0.0453   -4.2918    0.9571 H         1 <0>         0.1778
     29 H7          1.8955   -4.2480    5.1280 H         1 <0>         0.1498
     30 H8          3.8698   -4.5031    6.5717 H         1 <0>         0.1555
     31 H9          5.7654   -2.9494    6.3585 H         1 <0>         0.1560
     32 H10         5.6978   -1.1320    4.7029 H         1 <0>         0.1577
     33 H11         1.9085   -4.0377    2.2797 H         1 <0>         0.4513
@<TRIPOS>BOND
     1    1    2 1
     2    1   23 1
     3    1   24 1
     4    1   25 1
     5    2    6 1
     6    2    3 2
     7    3    4 1
     8    4    5 2
     9    5   15 1
    10    5    6 1
    11    6    7 1
    12    7   11 1
    13    7    8 2
    14    8    9 1
    15    8   13 1
    16    9   10 2
    17    9   26 1
    18   10   11 1
    19   10   12 1
    20   13   14 2
    21   13   16 1
    22   14   15 1
    23   14   33 1
    24   15   27 1
    25   15   28 1
    26   16   21 ar
    27   16   17 ar
    28   17   18 ar
    29   17   29 1
    30   18   19 ar
    31   18   30 1
    32   19   20 ar
    33   19   31 1
    34   20   21 ar
    35   20   32 1
    36   21   22 1
@<TRIPOS>MOLECULE
ZINC19300304
   23    22     0     0     0
SMALL
USER_CHARGES

@<TRIPOS>ATOM
      1 C1         -0.0187    1.5258    0.0104 C.3       1 <0>        -0.1242
      2 C2          0.0021   -0.0041    0.0020 C.3       1 <0>        -0.0472
      3 N1         -1.3761   -0.5125    0.0124 N.4       1 <0>        -0.6316
      4 C3          1.4167    2.0553   -0.0004 C.3       1 <0>        -1.0318
      5 O1          2.0856    1.5945   -1.1761 O.3       1 <0>        -0.5221
      6 P1          1.3920    3.8782    0.0096 P.3       1 <0>         2.2276
      7 O2          0.7821    4.3776    1.3384 O.2       1 <0>        -1.0565
      8 O3          2.8954    4.4361   -0.1341 O.3       1 <0>        -0.8881
      9 O4          0.5382    4.3881   -1.1728 O.3       1 <0>        -1.0946
     10 P2          2.2984    1.4515    1.4765 P.3       1 <0>         2.2737
     11 O5          1.5753    1.9497    2.7476 O.2       1 <0>        -1.0615
     12 O6          2.3193   -0.0934    1.4680 O.3       1 <0>        -1.0950
     13 O7          3.8089    2.0087    1.4650 O.3       1 <0>        -0.8903
     14 H1         -0.5459    1.8868   -0.8726 H         1 <0>         0.0778
     15 H2         -0.5289    1.8773    0.9072 H         1 <0>         0.1040
     16 H3          0.5123   -0.3556   -0.8948 H         1 <0>         0.1236
     17 H4          0.5293   -0.3651    0.8851 H         1 <0>         0.1884
     18 H5         -1.8484   -0.1871    0.8426 H         1 <0>         0.4312
     19 H6         -1.8641   -0.1783   -0.8050 H         1 <0>         0.4182
     20 H7          1.6703    1.8788   -2.0019 H         1 <0>         0.3525
     21 H8          4.3380    1.7263    2.2236 H         1 <0>         0.4097
     22 H9         -1.3624   -1.5214    0.0069 H         1 <0>         0.4269
     23 H10         2.9583    5.4010   -0.1362 H         1 <0>         0.4092
@<TRIPOS>BOND
     1    1    2 1
     2    1    4 1
     3    1   14 1
     4    1   15 1
     5    2    3 1
     6    2   16 1
     7    2   17 1
     8    3   18 1
     9    3   19 1
    10    3   22 1
    11    4    5 1
    12    4    6 1
    13    4   10 1
    14    5   20 1
    15    6    7 2
    16    6    8 1
    17    6    9 1
    18    8   23 1
    19   10   11 2
    20   10   12 1
    21   10   13 1
    22   13   21 1
@<TRIPOS>MOLECULE
ZINC18098320
   66    67     0     0     0
SMALL
NO_CHARGES

@<TRIPOS>ATOM
      1 C1         -4.8510   -1.6940   -1.9875 C.ar      1 <0>        -0.1047
      2 C2         -5.8940   -0.8497   -1.6612 C.ar      1 <0>        -0.0928
      3 C3         -6.5153   -0.9595   -0.4295 C.ar      1 <0>        -0.0713
      4 C4         -6.0933   -1.9148    0.4784 C.ar      1 <0>        -0.0893
      5 C5         -5.0507   -2.7617    0.1571 C.ar      1 <0>        -0.1595
      6 C6         -4.4258   -2.6539   -1.0784 C.ar      1 <0>         0.1875
      7 N1         -3.3695   -3.5110   -1.4067 N.pl3     1 <0>        -0.6589
      8 C7         -2.3541   -3.0699   -2.2241 C.2       1 <0>         0.5599
      9 N2         -2.3516   -1.8403   -2.6540 N.2       1 <0>        -0.8436
     10 N3         -1.3388   -3.9300   -2.5883 N.pl3     1 <0>        -0.6216
     11 C8         -1.4068   -5.2633   -2.2416 C.cat     1 <0>         0.1383
     12 N4         -0.3123   -5.9509   -2.0805 N.pl3     1 <0>        -0.8256
     13 N5         -2.6295   -5.8663   -2.0660 N.pl3     1 <0>        -0.7215
     14 C9         -2.7033   -7.2394   -1.5606 C.3       1 <0>         0.1381
     15 C10        -4.1687   -7.6675   -1.4592 C.3       1 <0>        -0.1319
     16 C11        -4.2457   -9.1015   -0.9313 C.3       1 <0>        -0.1142
     17 C12        -5.7111   -9.5296   -0.8299 C.3       1 <0>        -0.1164
     18 C13        -5.7881  -10.9636   -0.3021 C.3       1 <0>        -0.1255
     19 C14        -7.2535  -11.3917   -0.2007 C.3       1 <0>         0.1048
     20 N6         -7.3272  -12.7648    0.3047 N.pl3     1 <0>        -0.6756
     21 C15        -8.5500  -13.3679    0.4803 C.cat     1 <0>         0.4925
     22 N7         -9.6353  -12.7678    0.0821 N.pl3     1 <0>        -0.8060
     23 N8         -8.6276  -14.6084    1.0782 N.pl3     1 <0>        -0.6076
     24 C16        -7.4990  -15.1816    1.6268 C.2       1 <0>         0.5747
     25 N9         -6.3958  -14.4946    1.7127 N.2       1 <0>        -0.8234
     26 N10        -7.5388  -16.4793    2.0832 N.pl3     1 <0>        -0.6840
     27 C17        -8.6871  -17.2547    1.8880 C.ar      1 <0>         0.1309
     28 C18        -9.3603  -17.2075    0.6742 C.ar      1 <0>        -0.1689
     29 C19       -10.4931  -17.9742    0.4840 C.ar      1 <0>        -0.0732
     30 C20       -10.9576  -18.7889    1.5016 C.ar      1 <0>        -0.0714
     31 C21       -10.2888  -18.8378    2.7121 C.ar      1 <0>        -0.0775
     32 C22        -9.1524  -18.0771    2.9057 C.ar      1 <0>        -0.1346
     33 Cl1       -12.3823  -19.7509    1.2594 Cl        1 <0>        -0.0692
     34 Cl2        -7.8261    0.1035   -0.0225 Cl        1 <0>        -0.0869
     35 H1         -4.3693   -1.6109   -2.9506 H         1 <0>         0.1553
     36 H2         -6.2248   -0.1028   -2.3677 H         1 <0>         0.1279
     37 H3         -6.5794   -1.9979    1.4392 H         1 <0>         0.1279
     38 H4         -4.7217   -3.5071    0.8660 H         1 <0>         0.1234
     39 H5         -3.3531   -4.4160   -1.0581 H         1 <0>         0.4128
     40 H6         -1.6771   -1.5494   -3.2875 H         1 <0>         0.3286
     41 H7         -0.3595   -6.9048   -1.9107 H         1 <0>         0.3914
     42 H8         -3.4436   -5.3827   -2.2767 H         1 <0>         0.3937
     43 H9         -2.1763   -7.9064   -2.2427 H         1 <0>         0.0462
     44 H10        -2.2412   -7.2890   -0.5746 H         1 <0>         0.0484
     45 H11        -4.6957   -7.0005   -0.7770 H         1 <0>         0.0667
     46 H12        -4.6307   -7.6179   -2.4451 H         1 <0>         0.0676
     47 H13        -3.7187   -9.7686   -1.6135 H         1 <0>         0.0657
     48 H14        -3.7836   -9.1511    0.0546 H         1 <0>         0.0662
     49 H15        -6.2381   -8.8626   -0.1477 H         1 <0>         0.0665
     50 H16        -6.1731   -9.4801   -1.8159 H         1 <0>         0.0660
     51 H17        -5.2610  -11.6307   -0.9843 H         1 <0>         0.0713
     52 H18        -5.3260  -11.0132    0.6839 H         1 <0>         0.0739
     53 H19        -7.7805  -10.7247    0.4815 H         1 <0>         0.0622
     54 H20        -7.7155  -11.3422   -1.1867 H         1 <0>         0.0622
     55 H21        -6.5132  -13.2485    0.5154 H         1 <0>         0.4339
     56 H22       -10.5028  -13.1576    0.2725 H         1 <0>         0.4128
     57 H23        -9.4758  -15.0779    1.1129 H         1 <0>         0.4258
     58 H24        -5.6238  -14.8711    2.1636 H         1 <0>         0.3513
     59 H25        -6.7708  -16.8564    2.5402 H         1 <0>         0.4223
     60 H26        -8.9984  -16.5716   -0.1201 H         1 <0>         0.1322
     61 H27       -11.0172  -17.9376   -0.4596 H         1 <0>         0.1360
     62 H28       -10.6533  -19.4745    3.5046 H         1 <0>         0.1362
     63 H29        -8.6284  -18.1188    3.8492 H         1 <0>         0.1331
     64 H30        -9.5760  -11.9310   -0.4050 H         1 <0>         0.4221
     65 H31         0.5498   -5.5092   -2.1303 H         1 <0>         0.3895
     66 H32        -0.5771   -3.5971   -3.0882 H         1 <0>         0.4092
@<TRIPOS>BOND
     1    1    6 ar
     2    1    2 ar
     3    1   35 1
     4    2    3 ar
     5    2   36 1
     6    3    4 ar
     7    3   34 1
     8    4    5 ar
     9    4   37 1
    10    5    6 ar
    11    5   38 1
    12    6    7 1
    13    7    8 1
    14    7   39 1
    15    8    9 2
    16    8   10 1
    17    9   40 1
    18   10   11 1
    19   10   66 1
    20   11   12 2
    21   11   13 1
    22   12   41 1
    23   12   65 1
    24   13   14 1
    25   13   42 1
    26   14   15 1
    27   14   43 1
    28   14   44 1
    29   15   16 1
    30   15   45 1
    31   15   46 1
    32   16   17 1
    33   16   47 1
    34   16   48 1
    35   17   18 1
    36   17   49 1
    37   17   50 1
    38   18   19 1
    39   18   51 1
    40   18   52 1
    41   19   20 1
    42   19   53 1
    43   19   54 1
    44   20   21 1
    45   20   55 1
    46   21   22 2
    47   21   23 1
    48   22   56 1
    49   22   64 1
    50   23   24 1
    51   23   57 1
    52   24   25 2
    53   24   26 1
    54   25   58 1
    55   26   27 1
    56   26   59 1
    57   27   32 ar
    58   27   28 ar
    59   28   29 ar
    60   28   60 1
    61   29   30 ar
    62   29   61 1
    63   30   31 ar
    64   30   33 1
    65   31   32 ar
    66   31   62 1
    67   32   63 1
@<TRIPOS>MOLECULE
ZINC38197764
   50    53     0     0     0
SMALL
USER_CHARGES

@<TRIPOS>ATOM
      1 H1         -1.3342    1.3900   -0.0066 H         1 <0>         0.1387
      2 C1         -0.9091    2.3514    0.2818 C.3       1 <0>        -0.0186
      3 C2         -1.0282    2.5282    1.7991 C.3       1 <0>         0.0536
      4 N1         -0.1865    1.5149    2.4541 N.pl3     1 <0>        -0.6068
      5 C3          1.2093    1.3804    2.0094 C.3       1 <0>         0.0771
      6 C4          1.2227    1.2578    0.4821 C.3       1 <0>         0.0116
      7 H2          0.7332    0.3295    0.1877 H         1 <0>         0.1446
      8 N2          0.5065    2.3968   -0.1057 N.4       1 <0>        -0.5059
      9 C5          2.6692    1.2521   -0.0166 C.3       1 <0>        -0.1818
     10 H3          1.7764    2.2610    2.3111 H         1 <0>         0.1013
     11 H4          1.6504    0.4875    2.4524 H         1 <0>         0.1545
     12 C6         -0.6754    0.7397    3.4252 C.2       1 <0>         0.2448
     13 C7         -2.0608    0.4514    3.4680 C.2       1 <0>         0.0271
     14 C8         -2.5668   -0.3354    4.4500 C.2       1 <0>        -0.0086
     15 C9         -1.7132   -0.8713    5.4363 C.2       1 <0>        -0.1428
     16 C10        -0.3229   -0.5903    5.4050 C.2       1 <0>         0.2276
     17 C11         0.1891    0.2065    4.4001 C.2       1 <0>        -0.0048
     18 O1          1.5233    0.4796    4.3553 O.3       1 <0>        -0.3077
     19 C12         1.9224    1.8169    4.6625 C.3       1 <0>         0.0036
     20 N3          0.5087   -1.1190    6.3744 N.pl3     1 <0>        -0.3990
     21 C13         0.0241   -1.8983    7.3506 C.2       1 <0>         0.2488
     22 C14        -1.3252   -2.2031    7.4264 C.2       1 <0>        -0.2886
     23 C15        -2.2223   -1.6874    6.4590 C.2       1 <0>         0.3592
     24 O2         -3.5400   -1.9748    6.5193 O.3       1 <0>        -0.4268
     25 C16        -1.8251   -3.0608    8.5088 C.2       1 <0>         0.5375
     26 O3         -1.0747   -3.4069    9.4116 O.co2     1 <0>        -0.6305
     27 O4         -2.9922   -3.4294    8.5081 O.co2     1 <0>        -0.6499
     28 C17         1.9429   -0.8228    6.3333 C.3       1 <0>         0.0038
     29 C18         2.8250   -1.4503    7.4146 C.3       1 <0>        -0.1701
     30 C19         2.5167    0.0478    7.4529 C.3       1 <0>        -0.1695
     31 F1         -2.8832    0.9630    2.5261 F         1 <0>        -0.1151
     32 H5         -1.4496    3.1533   -0.2212 H         1 <0>         0.1521
     33 H6         -0.6870    3.5247    2.0797 H         1 <0>         0.1018
     34 H7         -2.0663    2.3941    2.1032 H         1 <0>         0.1604
     35 H8          0.5801    2.3562   -1.1112 H         1 <0>         0.4352
     36 H9          3.2008    0.4069    0.4204 H         1 <0>         0.1117
     37 H10         2.6786    1.1649   -1.1030 H         1 <0>         0.0909
     38 H11         3.1585    2.1806    0.2777 H         1 <0>         0.0854
     39 H12        -3.6246   -0.5513    4.4768 H         1 <0>         0.1788
     40 H13         1.3801    2.5138    4.0235 H         1 <0>         0.0541
     41 H14         1.6982    2.0320    5.7073 H         1 <0>         0.0642
     42 H15         2.9934    1.9248    4.4911 H         1 <0>         0.1109
     43 H16         0.6991   -2.2972    8.0933 H         1 <0>         0.2115
     44 H17         2.3711   -0.7089    5.3375 H         1 <0>         0.1886
     45 H18         2.3382   -2.0834    8.1564 H         1 <0>         0.1175
     46 H19         3.8338   -1.7495    7.1301 H         1 <0>         0.1294
     47 H20         3.3228    0.7343    7.1937 H         1 <0>         0.1215
     48 H21         1.8272    0.4003    8.2200 H         1 <0>         0.1095
     49 H22         0.9169    3.2574    0.2246 H         1 <0>         0.4268
     50 H23        -3.7986   -2.4717    7.3076 H         1 <0>         0.4428
@<TRIPOS>BOND
     1    1    2 1
     2    2    8 1
     3    2    3 1
     4    2   32 1
     5    3    4 1
     6    3   33 1
     7    3   34 1
     8    4    5 1
     9    4   12 2
    10    5    6 1
    11    5   10 1
    12    5   11 1
    13    6    7 1
    14    6    8 1
    15    6    9 1
    16    8   35 1
    17    8   49 1
    18    9   36 1
    19    9   37 1
    20    9   38 1
    21   12   17 1
    22   12   13 1
    23   13   14 2
    24   13   31 1
    25   14   15 1
    26   14   39 1
    27   15   23 2
    28   15   16 1
    29   16   17 2
    30   16   20 1
    31   17   18 1
    32   18   19 1
    33   19   40 1
    34   19   41 1
    35   19   42 1
    36   20   21 1
    37   20   28 1
    38   21   22 2
    39   21   43 1
    40   22   23 1
    41   22   25 1
    42   23   24 1
    43   24   50 1
    44   25   26 2
    45   25   27 1
    46   28   30 1
    47   28   29 1
    48   28   44 1
    49   29   30 1
    50   29   45 1
    51   29   46 1
    52   30   47 1
    53   30   48 1
@<TRIPOS>MOLECULE
ZINC19632891
   56    59     0     0     0
SMALL
USER_CHARGES

@<TRIPOS>ATOM
      1 C1         -0.6427    1.2093    0.7414 C.ar      1 <0>        -0.1215
      2 C2          0.4563    2.0275    0.9333 C.ar      1 <0>        -0.1188
      3 C3          1.7277    1.4917    0.9313 C.ar      1 <0>        -0.1103
      4 C4          1.9037    0.1214    0.7356 C.ar      1 <0>        -0.0548
      5 C5          0.7911   -0.6984    0.5430 C.ar      1 <0>        -0.1153
      6 C6         -0.4749   -0.1501    0.5469 C.ar      1 <0>        -0.1182
      7 C7          3.2631   -0.4592    0.7317 C.2       1 <0>        -0.1116
      8 C8          3.4271   -1.7614    0.5455 C.2       1 <0>        -0.1343
      9 C9          4.8129   -2.3534    0.5416 C.3       1 <0>         0.0843
     10 N1          4.8860   -3.4354    1.5325 N.3       1 <0>        -0.5355
     11 C10         4.0266   -4.5629    1.1454 C.3       1 <0>         0.0576
     12 C11         4.0691   -5.6323    2.2395 C.3       1 <0>         0.0571
     13 N2          5.4569   -6.0745    2.4350 N.3       1 <0>        -0.5275
     14 C12         6.3163   -4.9470    2.8221 C.3       1 <0>         0.0579
     15 C13         6.2738   -3.8776    1.7280 C.3       1 <0>         0.0591
     16 C14         5.5300   -7.1566    3.4259 C.3       1 <0>         0.1678
     17 C15         4.6567   -8.3024    2.9837 C.ar      1 <0>        -0.0763
     18 C16         4.6773   -8.7186    1.6657 C.ar      1 <0>        -0.0901
     19 C17         3.8763   -9.7696    1.2601 C.ar      1 <0>        -0.1239
     20 C18         3.0550  -10.4049    2.1727 C.ar      1 <0>        -0.1184
     21 C19         3.0351   -9.9893    3.4909 C.ar      1 <0>        -0.1204
     22 C20         3.8393   -8.9410    3.8974 C.ar      1 <0>        -0.1132
     23 C21         6.9555   -7.6297    3.5488 C.ar      1 <0>        -0.0761
     24 C22         7.7154   -7.8368    2.4127 C.ar      1 <0>        -0.0893
     25 C23         9.0230   -8.2708    2.5254 C.ar      1 <0>        -0.1240
     26 C24         9.5708   -8.4973    3.7742 C.ar      1 <0>        -0.1185
     27 C25         8.8113   -8.2893    4.9103 C.ar      1 <0>        -0.1206
     28 C26         7.5050   -7.8512    4.7977 C.ar      1 <0>        -0.1133
     29 H1         -1.6361    1.6330    0.7480 H         1 <0>         0.1219
     30 H2          0.3186    3.0879    1.0846 H         1 <0>         0.1233
     31 H3          2.5849    2.1316    1.0804 H         1 <0>         0.1236
     32 H4          0.9208   -1.7597    0.3907 H         1 <0>         0.1224
     33 H5         -1.3369   -0.7835    0.3976 H         1 <0>         0.1227
     34 H6          4.1226    0.1775    0.8806 H         1 <0>         0.1188
     35 H7          2.5675   -2.3981    0.3967 H         1 <0>         0.1136
     36 H8          5.0351   -2.7517   -0.4484 H         1 <0>         0.0471
     37 H9          5.5389   -1.5804    0.7936 H         1 <0>         0.0807
     38 H10         3.0022   -4.2126    1.0189 H         1 <0>         0.0797
     39 H11         4.3845   -4.9877    0.2076 H         1 <0>         0.0434
     40 H12         3.6857   -5.2153    3.1707 H         1 <0>         0.0429
     41 H13         3.4552   -6.4822    1.9413 H         1 <0>         0.0839
     42 H14         5.9584   -4.5222    3.7599 H         1 <0>         0.0432
     43 H15         7.3407   -5.2973    2.9486 H         1 <0>         0.0839
     44 H16         6.6572   -4.2946    0.7968 H         1 <0>         0.0437
     45 H17         6.8877   -3.0277    2.0262 H         1 <0>         0.0799
     46 H18         5.1848   -6.7884    4.3920 H         1 <0>         0.0568
     47 H19         5.3190   -8.2223    0.9527 H         1 <0>         0.1275
     48 H20         3.8919  -10.0943    0.2302 H         1 <0>         0.1210
     49 H21         2.4287  -11.2256    1.8557 H         1 <0>         0.1204
     50 H22         2.3932  -10.4854    4.2039 H         1 <0>         0.1214
     51 H23         3.8265   -8.6188    4.9282 H         1 <0>         0.1184
     52 H24         7.2873   -7.6599    1.4371 H         1 <0>         0.1273
     53 H25         9.6164   -8.4334    1.6379 H         1 <0>         0.1209
     54 H26        10.5922   -8.8371    3.8623 H         1 <0>         0.1203
     55 H27         9.2392   -8.4665    5.8859 H         1 <0>         0.1214
     56 H28         6.9127   -7.6851    5.6854 H         1 <0>         0.1184
@<TRIPOS>BOND
     1    1    6 ar
     2    1    2 ar
     3    1   29 1
     4    2    3 ar
     5    2   30 1
     6    3    4 ar
     7    3   31 1
     8    4    5 ar
     9    4    7 1
    10    5    6 ar
    11    5   32 1
    12    6   33 1
    13    7    8 2
    14    7   34 1
    15    8    9 1
    16    8   35 1
    17    9   10 1
    18    9   36 1
    19    9   37 1
    20   10   15 1
    21   10   11 1
    22   11   12 1
    23   11   38 1
    24   11   39 1
    25   12   13 1
    26   12   40 1
    27   12   41 1
    28   13   14 1
    29   13   16 1
    30   14   15 1
    31   14   42 1
    32   14   43 1
    33   15   44 1
    34   15   45 1
    35   16   17 1
    36   16   23 1
    37   16   46 1
    38   17   22 ar
    39   17   18 ar
    40   18   19 ar
    41   18   47 1
    42   19   20 ar
    43   19   48 1
    44   20   21 ar
    45   20   49 1
    46   21   22 ar
    47   21   50 1
    48   22   51 1
    49   23   28 ar
    50   23   24 ar
    51   24   25 ar
    52   24   52 1
    53   25   26 ar
    54   25   53 1
    55   26   27 ar
    56   26   54 1
    57   27   28 ar
    58   27   55 1
    59   28   56 1
@<TRIPOS>MOLECULE
ZINC19632891
   57    60     0     0     0
SMALL
USER_CHARGES

@<TRIPOS>ATOM
      1 C1         -0.0167    1.3792    0.0096 C.ar      1 <0>        -0.1114
      2 C2          1.1683    2.0931    0.0021 C.ar      1 <0>        -0.1174
      3 C3          2.3774    1.4286   -0.0134 C.ar      1 <0>        -0.1033
      4 C4          2.4032    0.0335   -0.0212 C.ar      1 <0>        -0.0714
      5 C5          1.2045   -0.6806   -0.0131 C.ar      1 <0>        -0.1115
      6 C6          0.0021   -0.0041    0.0020 C.ar      1 <0>        -0.1198
      7 C7          3.6950   -0.6848   -0.0384 C.2       1 <0>        -0.0787
      8 C8          3.7162   -2.0103   -0.0457 C.2       1 <0>        -0.1682
      9 C9          5.0332   -2.7426   -0.0633 C.3       1 <0>         0.0892
     10 N1          5.0868   -3.6810    1.0657 N.3       1 <0>        -0.5337
     11 C10         4.0942   -4.7533    0.9069 C.3       1 <0>         0.0256
     12 C11         4.1414   -5.6730    2.1290 C.3       1 <0>        -0.0039
     13 N2          5.4882   -6.2444    2.2603 N.4       1 <0>        -0.3834
     14 C12         6.4652   -5.1629    2.4428 C.3       1 <0>        -0.0037
     15 C13         6.4373   -4.2389    1.2233 C.3       1 <0>         0.0279
     16 C14         5.5281   -7.1413    3.4231 C.3       1 <0>         0.1340
     17 C15         4.5271   -8.2520    3.2353 C.ar      1 <0>        -0.1314
     18 C16         4.3685   -8.8368    1.9928 C.ar      1 <0>        -0.1216
     19 C17         3.4503   -9.8557    1.8205 C.ar      1 <0>        -0.1029
     20 C18         2.6910  -10.2901    2.8909 C.ar      1 <0>        -0.0922
     21 C19         2.8502   -9.7059    4.1336 C.ar      1 <0>        -0.1034
     22 C20         3.7715   -8.6900    4.3068 C.ar      1 <0>        -0.0863
     23 C21         6.9097   -7.7277    3.5580 C.ar      1 <0>        -0.1310
     24 C22         7.6098   -8.1140    2.4303 C.ar      1 <0>        -0.1221
     25 C23         8.8771   -8.6519    2.5541 C.ar      1 <0>        -0.1026
     26 C24         9.4447   -8.8031    3.8055 C.ar      1 <0>        -0.0924
     27 C25         8.7450   -8.4159    4.9330 C.ar      1 <0>        -0.1031
     28 C26         7.4794   -7.8740    4.8090 C.ar      1 <0>        -0.0865
     29 H1         -0.9604    1.9041    0.0260 H         1 <0>         0.1259
     30 H2          1.1469    3.1729    0.0082 H         1 <0>         0.1273
     31 H3          3.3018    1.9870   -0.0200 H         1 <0>         0.1256
     32 H4          1.2178   -1.7605   -0.0194 H         1 <0>         0.1202
     33 H5         -0.9265   -0.5556    0.0079 H         1 <0>         0.1249
     34 H6          4.6214   -0.1298   -0.0450 H         1 <0>         0.1212
     35 H7          2.7898   -2.5653   -0.0392 H         1 <0>         0.1155
     36 H8          5.1300   -3.2938   -0.9987 H         1 <0>         0.0562
     37 H9          5.8492   -2.0250    0.0217 H         1 <0>         0.0930
     38 H10         3.0991   -4.3175    0.8179 H         1 <0>         0.1251
     39 H11         4.3212   -5.3289    0.0096 H         1 <0>         0.0598
     40 H12         3.9011   -5.0999    3.0245 H         1 <0>         0.1396
     41 H13         3.4159   -6.4772    2.0068 H         1 <0>         0.1363
     42 H14         6.2129   -4.5924    3.3367 H         1 <0>         0.1398
     43 H15         7.4624   -5.5889    2.5531 H         1 <0>         0.1368
     44 H16         6.7029   -4.8061    0.3311 H         1 <0>         0.0595
     45 H17         7.1516   -3.4279    1.3651 H         1 <0>         0.1254
     46 H18         5.2824   -6.5792    4.3241 H         1 <0>         0.1487
     47 H19         4.9617   -8.4974    1.1565 H         1 <0>         0.1135
     48 H20         3.3259  -10.3120    0.8496 H         1 <0>         0.1351
     49 H21         1.9731  -11.0856    2.7561 H         1 <0>         0.1361
     50 H22         2.2568  -10.0451    4.9698 H         1 <0>         0.1376
     51 H23         3.8986   -8.2361    5.2786 H         1 <0>         0.1334
     52 H24         7.1663   -7.9960    1.4526 H         1 <0>         0.1133
     53 H25         9.4237   -8.9545    1.6731 H         1 <0>         0.1351
     54 H26        10.4345   -9.2240    3.9022 H         1 <0>         0.1361
     55 H27         9.1883   -8.5343    5.9107 H         1 <0>         0.1376
     56 H28         6.9342   -7.5681    5.6897 H         1 <0>         0.1334
     57 H29         5.7151   -6.7652    1.4264 H         1 <0>         0.4132
@<TRIPOS>BOND
     1    1    6 ar
     2    1    2 ar
     3    1   29 1
     4    2    3 ar
     5    2   30 1
     6    3    4 ar
     7    3   31 1
     8    4    5 ar
     9    4    7 1
    10    5    6 ar
    11    5   32 1
    12    6   33 1
    13    7    8 2
    14    7   34 1
    15    8    9 1
    16    8   35 1
    17    9   10 1
    18    9   36 1
    19    9   37 1
    20   10   15 1
    21   10   11 1
    22   11   12 1
    23   11   38 1
    24   11   39 1
    25   12   13 1
    26   12   40 1
    27   12   41 1
    28   13   14 1
    29   13   16 1
    30   13   57 1
    31   14   15 1
    32   14   42 1
    33   14   43 1
    34   15   44 1
    35   15   45 1
    36   16   17 1
    37   16   23 1
    38   16   46 1
    39   17   22 ar
    40   17   18 ar
    41   18   19 ar
    42   18   47 1
    43   19   20 ar
    44   19   48 1
    45   20   21 ar
    46   20   49 1
    47   21   22 ar
    48   21   50 1
    49   22   51 1
    50   23   28 ar
    51   23   24 ar
    52   24   25 ar
    53   24   52 1
    54   25   26 ar
    55   25   53 1
    56   26   27 ar
    57   26   54 1
    58   27   28 ar
    59   27   55 1
    60   28   56 1
@<TRIPOS>MOLECULE
ZINC19632927
   48    51     0     0     0
SMALL
USER_CHARGES

@<TRIPOS>ATOM
      1 C1         -0.0178    1.4648    0.0101 C.3       1 <0>         0.0196
      2 N1          0.0021   -0.0041    0.0020 N.3       1 <0>        -0.5444
      3 C2          0.6054   -0.5158   -1.2366 C.3       1 <0>         0.0258
      4 C3          0.5529   -2.0452   -1.2320 C.3       1 <0>        -0.0018
      5 N2          1.2823   -2.5567   -0.0641 N.4       1 <0>        -0.3733
      6 C4          0.6533   -2.0570    1.1655 C.3       1 <0>        -0.0155
      7 C5          0.7065   -0.5278    1.1808 C.3       1 <0>         0.0300
      8 C6          1.2470   -4.0253   -0.0699 C.3       1 <0>        -0.0244
      9 C7          2.0969   -4.5526    1.0573 C.2       1 <0>         0.5235
     10 O1          2.6751   -3.7810    1.7931 O.2       1 <0>        -0.4949
     11 N3          2.2146   -5.8816    1.2479 N.am      1 <0>        -0.4846
     12 C8          2.9932   -6.3804    2.2906 C.ar      1 <0>         0.1484
     13 C9          4.3473   -6.0836    2.3497 C.ar      1 <0>        -0.1002
     14 C10         5.1280   -6.6089    3.3605 C.ar      1 <0>        -0.0741
     15 C11         4.5660   -7.4364    4.3187 C.ar      1 <0>        -0.1065
     16 C12         3.2199   -7.7288    4.2833 C.ar      1 <0>        -0.0453
     17 C13         2.4126   -7.1893    3.2772 C.ar      1 <0>        -0.1310
     18 C14         0.9650   -7.4308    3.2944 C.2       1 <0>         0.5660
     19 O2          0.4220   -7.4585    4.3818 O.2       1 <0>        -0.5020
     20 N4          0.1966   -7.6210    2.2325 N.am      1 <0>        -0.6563
     21 C15         0.6007   -7.6588    0.9012 C.ar      1 <0>         0.1240
     22 C16         1.5531   -6.7799    0.4064 C.ar      1 <0>         0.2781
     23 N5          1.8594   -6.7924   -0.8838 N.ar      1 <0>        -0.4751
     24 C17         1.3134   -7.6512   -1.7224 C.ar      1 <0>         0.1160
     25 C18         0.3916   -8.5811   -1.2851 C.ar      1 <0>        -0.1227
     26 C19         0.0278   -8.5907    0.0409 C.ar      1 <0>        -0.0791
     27 H1          1.0047    1.8421    0.0024 H         1 <0>         0.0402
     28 H2         -0.5450    1.8259   -0.8730 H         1 <0>         0.0841
     29 H3         -0.5280    1.8163    0.9069 H         1 <0>         0.0845
     30 H4          0.0516   -0.1355   -2.0950 H         1 <0>         0.1271
     31 H5          1.6430   -0.1877   -1.2984 H         1 <0>         0.0626
     32 H6         -0.4855   -2.3730   -1.1840 H         1 <0>         0.1398
     33 H7          1.0127   -2.4272   -2.1434 H         1 <0>         0.1394
     34 H8         -0.3857   -2.3847    1.2013 H         1 <0>         0.1346
     35 H9          1.1874   -2.4478    2.0316 H         1 <0>         0.1491
     36 H10         1.7458   -0.1998    1.1589 H         1 <0>         0.0634
     37 H11         0.2266   -0.1562    2.0862 H         1 <0>         0.1249
     38 H12         0.2194   -4.3646    0.0604 H         1 <0>         0.1577
     39 H13         1.6338   -4.3943   -1.0199 H         1 <0>         0.1742
     40 H14         4.7915   -5.4410    1.6039 H         1 <0>         0.1353
     41 H15         6.1812   -6.3738    3.4038 H         1 <0>         0.1444
     42 H16         5.1863   -7.8550    5.0974 H         1 <0>         0.1462
     43 H17         2.7883   -8.3754    5.0330 H         1 <0>         0.1472
     44 H18        -0.7502   -7.7480    2.4009 H         1 <0>         0.4187
     45 H19         1.5909   -7.6265   -2.7658 H         1 <0>         0.1794
     46 H20        -0.0363   -9.2928   -1.9757 H         1 <0>         0.1603
     47 H21        -0.6942   -9.3066    0.4050 H         1 <0>         0.1586
     48 H22         2.2406   -2.2435   -0.1027 H         1 <0>         0.4278
@<TRIPOS>BOND
     1    1    2 1
     2    1   27 1
     3    1   28 1
     4    1   29 1
     5    2    7 1
     6    2    3 1
     7    3    4 1
     8    3   30 1
     9    3   31 1
    10    4    5 1
    11    4   32 1
    12    4   33 1
    13    5    6 1
    14    5    8 1
    15    5   48 1
    16    6    7 1
    17    6   34 1
    18    6   35 1
    19    7   36 1
    20    7   37 1
    21    8    9 1
    22    8   38 1
    23    8   39 1
    24    9   10 2
    25    9   11 am
    26   11   22 1
    27   11   12 1
    28   12   17 ar
    29   12   13 ar
    30   13   14 ar
    31   13   40 1
    32   14   15 ar
    33   14   41 1
    34   15   16 ar
    35   15   42 1
    36   16   17 ar
    37   16   43 1
    38   17   18 1
    39   18   19 2
    40   18   20 am
    41   20   21 1
    42   20   44 1
    43   21   26 ar
    44   21   22 ar
    45   22   23 ar
    46   23   24 ar
    47   24   25 ar
    48   24   45 1
    49   25   26 ar
    50   25   46 1
    51   26   47 1
@<TRIPOS>MOLECULE
ZINC19632927
   47    50     0     0     0
SMALL
USER_CHARGES

@<TRIPOS>ATOM
      1 C1         -0.0178    1.4648    0.0101 C.3       1 <0>         0.0248
      2 N1          0.0021   -0.0041    0.0020 N.3       1 <0>        -0.5479
      3 C2          0.6031   -0.5158   -1.2375 C.3       1 <0>         0.0571
      4 C3          0.5329   -2.0447   -1.2421 C.3       1 <0>         0.0591
      5 N2          1.2373   -2.5683   -0.0634 N.3       1 <0>        -0.5228
      6 C4          0.6362   -2.0566    1.1762 C.3       1 <0>         0.0505
      7 C5          0.7064   -0.5277    1.1807 C.3       1 <0>         0.0599
      8 C6          1.2572   -4.0372   -0.0715 C.3       1 <0>         0.0451
      9 C7          2.1875   -4.5329    1.0055 C.2       1 <0>         0.5341
     10 O1          2.7761   -3.7405    1.7103 O.2       1 <0>        -0.4817
     11 N3          2.3656   -5.8566    1.1853 N.am      1 <0>        -0.5193
     12 C8          3.2191   -6.3265    2.1819 C.ar      1 <0>         0.1729
     13 C9          4.5622   -5.9787    2.1669 C.ar      1 <0>        -0.1042
     14 C10         5.4170   -6.4750    3.1313 C.ar      1 <0>        -0.0765
     15 C11         4.9406   -7.3239    4.1167 C.ar      1 <0>        -0.1213
     16 C12         3.6066   -7.6669    4.1551 C.ar      1 <0>        -0.0489
     17 C13         2.7249   -7.1575    3.1968 C.ar      1 <0>        -0.1413
     18 C14         1.2907   -7.4536    3.2934 C.2       1 <0>         0.5714
     19 O2          0.8103   -7.5027    4.4091 O.2       1 <0>        -0.5168
     20 N4          0.4724   -7.6719    2.2751 N.am      1 <0>        -0.6527
     21 C15         0.8031   -7.6933    0.9234 C.ar      1 <0>         0.1066
     22 C16         1.6928   -6.7786    0.3792 C.ar      1 <0>         0.3179
     23 N5          1.9273   -6.7785   -0.9260 N.ar      1 <0>        -0.4679
     24 C17         1.3685   -7.6566   -1.7356 C.ar      1 <0>         0.1140
     25 C18         0.5081   -8.6211   -1.2507 C.ar      1 <0>        -0.1400
     26 C19         0.2190   -8.6455    0.0935 C.ar      1 <0>        -0.0822
     27 H1          1.0047    1.8421    0.0024 H         1 <0>         0.0275
     28 H2         -0.5450    1.8259   -0.8730 H         1 <0>         0.0690
     29 H3         -0.5280    1.8163    0.9069 H         1 <0>         0.0692
     30 H4          0.0565   -0.1241   -2.0954 H         1 <0>         0.0824
     31 H5          1.6447   -0.1994   -1.2942 H         1 <0>         0.0451
     32 H6         -0.5098   -2.3609   -1.2128 H         1 <0>         0.0448
     33 H7          1.0041   -2.4277   -2.1472 H         1 <0>         0.0835
     34 H8         -0.4053   -2.3729    1.2329 H         1 <0>         0.0384
     35 H9          1.1828   -2.4483    2.0340 H         1 <0>         0.0945
     36 H10         1.7492   -0.2115    1.1515 H         1 <0>         0.0462
     37 H11         0.2352   -0.1447    2.0859 H         1 <0>         0.0803
     38 H12         0.2519   -4.4152    0.1146 H         1 <0>         0.0611
     39 H13         1.6043   -4.3905   -1.0424 H         1 <0>         0.1222
     40 H14         4.9398   -5.3192    1.3995 H         1 <0>         0.1359
     41 H15         6.4613   -6.2003    3.1169 H         1 <0>         0.1387
     42 H16         5.6185   -7.7193    4.8587 H         1 <0>         0.1391
     43 H17         3.2419   -8.3300    4.9256 H         1 <0>         0.1408
     44 H18        -0.4582   -7.8347    2.4953 H         1 <0>         0.4144
     45 H19         1.5866   -7.6205   -2.7927 H         1 <0>         0.1727
     46 H20         0.0697   -9.3478   -1.9185 H         1 <0>         0.1527
     47 H21        -0.4542   -9.3885    0.4949 H         1 <0>         0.1514
@<TRIPOS>BOND
     1    1    2 1
     2    1   27 1
     3    1   28 1
     4    1   29 1
     5    2    7 1
     6    2    3 1
     7    3    4 1
     8    3   30 1
     9    3   31 1
    10    4    5 1
    11    4   32 1
    12    4   33 1
    13    5    6 1
    14    5    8 1
    15    6    7 1
    16    6   34 1
    17    6   35 1
    18    7   36 1
    19    7   37 1
    20    8    9 1
    21    8   38 1
    22    8   39 1
    23    9   10 2
    24    9   11 am
    25   11   22 1
    26   11   12 1
    27   12   17 ar
    28   12   13 ar
    29   13   14 ar
    30   13   40 1
    31   14   15 ar
    32   14   41 1
    33   15   16 ar
    34   15   42 1
    35   16   17 ar
    36   16   43 1
    37   17   18 1
    38   18   19 2
    39   18   20 am
    40   20   21 1
    41   20   44 1
    42   21   26 ar
    43   21   22 ar
    44   22   23 ar
    45   23   24 ar
    46   24   25 ar
    47   24   45 1
    48   25   26 ar
    49   25   46 1
    50   26   47 1
@<TRIPOS>MOLECULE
ZINC00643055
   39    41     0     0     0
SMALL
USER_CHARGES

@<TRIPOS>ATOM
      1 C1         -0.0167    1.3782    0.0096 C.ar      1 <0>        -0.0821
      2 C2          1.1706    2.0858    0.0021 C.ar      1 <0>        -0.1113
      3 C3          2.3780    1.4104   -0.0130 C.ar      1 <0>        -0.0264
      4 C4          2.3961    0.0270   -0.0206 C.ar      1 <0>        -0.1130
      5 C5          1.2082   -0.6795   -0.0130 C.ar      1 <0>        -0.0851
      6 C6          0.0021   -0.0041    0.0020 C.ar      1 <0>        -0.0860
      7 C7         -1.2928   -0.7750    0.0107 C.3       1 <0>         0.0901
      8 O1         -1.7154   -1.0114   -1.3338 O.3       1 <0>        -0.3634
      9 C8         -2.9406   -1.7395   -1.4384 C.3       1 <0>         0.1180
     10 H1         -3.0408   -2.4068   -0.5824 H         1 <0>         0.0887
     11 C9         -4.1156   -0.7599   -1.4618 C.3       1 <0>         0.0874
     12 N1         -4.1909   -0.0569   -0.1787 N.pl3     1 <0>        -0.4612
     13 C10        -4.8922   -0.4569    0.9267 C.2       1 <0>        -0.0564
     14 C11        -4.6866    0.4750    1.8769 C.2       1 <0>        -0.0247
     15 N2         -3.8818    1.4184    1.3656 N.2       1 <0>        -0.4886
     16 C12        -3.5768    1.1038    0.1364 C.2       1 <0>         0.1834
     17 C13        -2.9365   -2.5496   -2.7091 C.ar      1 <0>        -0.0828
     18 C14        -2.1520   -2.1559   -3.7771 C.ar      1 <0>        -0.0615
     19 C15        -2.1478   -2.8983   -4.9428 C.ar      1 <0>        -0.1050
     20 C16        -2.9286   -4.0365   -5.0414 C.ar      1 <0>        -0.0175
     21 C17        -3.7134   -4.4311   -3.9731 C.ar      1 <0>        -0.1018
     22 C18        -3.7135   -3.6901   -2.8046 C.ar      1 <0>        -0.0167
     23 Cl1        -4.6936   -4.1880   -1.4610 Cl        1 <0>        -0.0510
     24 Cl2        -2.9236   -4.9686   -6.5059 Cl        1 <0>        -0.0496
     25 Cl3         3.8696    2.2984   -0.0231 Cl        1 <0>        -0.0661
     26 H2         -0.9592    1.9053    0.0259 H         1 <0>         0.1332
     27 H3          1.1558    3.1656    0.0076 H         1 <0>         0.1371
     28 H4          3.3383   -0.5007   -0.0327 H         1 <0>         0.1358
     29 H5          1.2222   -1.7594   -0.0193 H         1 <0>         0.1319
     30 H6         -1.1447   -1.7283    0.5180 H         1 <0>         0.0601
     31 H7         -2.0551   -0.1989    0.5352 H         1 <0>         0.0791
     32 H8         -3.9699   -0.0368   -2.2643 H         1 <0>         0.1078
     33 H9         -5.0424   -1.3082   -1.6306 H         1 <0>         0.1051
     34 H10        -5.4948   -1.3484    1.0190 H         1 <0>         0.1736
     35 H11        -5.0977    0.4646    2.8755 H         1 <0>         0.1710
     36 H12        -2.9407    1.6780   -0.5210 H         1 <0>         0.2011
     37 H13        -1.5424   -1.2677   -3.7007 H         1 <0>         0.1526
     38 H14        -1.5352   -2.5899   -5.7771 H         1 <0>         0.1451
     39 H15        -4.3230   -5.3193   -4.0495 H         1 <0>         0.1489
@<TRIPOS>BOND
     1    1    6 ar
     2    1    2 ar
     3    1   26 1
     4    2    3 ar
     5    2   27 1
     6    3    4 ar
     7    3   25 1
     8    4    5 ar
     9    4   28 1
    10    5    6 ar
    11    5   29 1
    12    6    7 1
    13    7    8 1
    14    7   30 1
    15    7   31 1
    16    8    9 1
    17    9   10 1
    18    9   11 1
    19    9   17 1
    20   11   12 1
    21   11   32 1
    22   11   33 1
    23   12   16 1
    24   12   13 1
    25   13   14 2
    26   13   34 1
    27   14   15 1
    28   14   35 1
    29   15   16 2
    30   16   36 1
    31   17   22 ar
    32   17   18 ar
    33   18   19 ar
    34   18   37 1
    35   19   20 ar
    36   19   38 1
    37   20   21 ar
    38   20   24 1
    39   21   22 ar
    40   21   39 1
    41   22   23 1
@<TRIPOS>MOLECULE
ZINC19632644
   23    23     0     0     0
SMALL
USER_CHARGES

@<TRIPOS>ATOM
      1 C1         -0.0162    1.3425    0.0094 C.2       1 <0>        -0.0922
      2 N1          1.2535    1.7747   -0.0004 N.2       1 <0>        -0.5179
      3 C2          2.0579    0.7472   -0.0136 C.2       1 <0>         0.1430
      4 N2          1.3175   -0.3822   -0.0126 N.pl3     1 <0>        -0.4240
      5 C3          0.0021   -0.0041    0.0020 C.2       1 <0>         0.0722
      6 C4          1.8271   -1.7557   -0.0258 C.3       1 <0>         0.1252
      7 C5          2.0187   -2.2424    1.4121 C.3       1 <0>        -1.0399
      8 P1          0.4203   -2.1957    2.2874 P.3       1 <0>         2.1998
      9 O1         -0.0629   -0.7107    2.4135 O.2       1 <0>        -1.1549
     10 O2         -0.6397   -3.0233    1.4838 O.3       1 <0>        -1.1598
     11 O3          0.5898   -2.8128    3.7174 O.3       1 <0>        -1.1709
     12 P2          2.6528   -3.9515    1.3957 P.3       1 <0>         2.2770
     13 O4          1.6421   -4.8688    0.6718 O.2       1 <0>        -1.0930
     14 O5          4.0074   -3.9911    0.6538 O.3       1 <0>        -1.1310
     15 O6          2.8544   -4.4636    2.9087 O.3       1 <0>        -0.8677
     16 O7          2.9535   -1.3939    2.0816 O.3       1 <0>        -0.5064
     17 H1         -0.8985    1.9651    0.0252 H         1 <0>         0.1455
     18 H2          3.1369    0.7926   -0.0240 H         1 <0>         0.1721
     19 H3         -0.8562   -0.6596    0.0072 H         1 <0>         0.1647
     20 H4          1.1141   -2.4029   -0.5365 H         1 <0>         0.0985
     21 H5          2.7828   -1.7836   -0.5492 H         1 <0>         0.0634
     22 H6          3.1904   -5.3678    2.9763 H         1 <0>         0.3832
     23 H7          3.8280   -1.3698    1.6696 H         1 <0>         0.3132
@<TRIPOS>BOND
     1    1    5 2
     2    1    2 1
     3    1   17 1
     4    2    3 2
     5    3    4 1
     6    3   18 1
     7    4    5 1
     8    4    6 1
     9    5   19 1
    10    6    7 1
    11    6   20 1
    12    6   21 1
    13    7    8 1
    14    7   12 1
    15    7   16 1
    16    8    9 2
    17    8   10 1
    18    8   11 1
    19   12   13 2
    20   12   14 1
    21   12   15 1
    22   15   22 1
    23   16   23 1
@<TRIPOS>MOLECULE
ZINC18115268
   33    33     0     0     0
SMALL
USER_CHARGES

@<TRIPOS>ATOM
      1 C1         -0.0464    1.5641   -0.3229 C.3       1 <0>        -0.0712
      2 C2         -0.7905    1.8824   -1.5941 C.2       1 <0>         0.0343
      3 C3         -0.2464    2.0065   -2.8197 C.2       1 <0>        -0.0221
      4 N1         -1.2706    2.2965   -3.6802 N.pl3     1 <0>        -0.5619
      5 C4         -2.4058    2.3396   -2.9500 C.2       1 <0>         0.2019
      6 N2         -2.1117    2.0860   -1.7041 N.2       1 <0>        -0.4919
      7 H1         -1.1951    2.4436   -4.6360 H         1 <0>         0.4214
      8 C5          1.2102    1.8556   -3.1754 C.3       1 <0>        -0.0044
      9 S1          1.5543    0.1244   -3.5940 S.3       1 <0>        -0.2478
     10 C6          3.3240    0.1125   -3.9922 C.3       1 <0>        -0.0835
     11 C7          3.7526   -1.3072   -4.3683 C.3       1 <0>         0.0981
     12 N3          5.1818   -1.3168   -4.6899 N.2       1 <0>        -0.6325
     13 C8          6.0089   -2.0092   -3.9600 C.2       1 <0>         0.6314
     14 N4          5.5282   -2.8320   -2.9692 N.pl3     1 <0>        -0.7614
     15 C9          6.4605   -3.5376   -2.0865 C.3       1 <0>         0.0613
     16 N5          7.3676   -1.9168   -4.1810 N.pl3     1 <0>        -0.5853
     17 C10         8.2281   -2.6370   -3.4216 C.1       1 <0>         0.4178
     18 N6          8.9495   -3.2409   -2.7849 N.1       1 <0>        -0.4033
     19 H2         -0.0080    0.4835   -0.1852 H         1 <0>         0.0736
     20 H3          0.9677    1.9585   -0.3871 H         1 <0>         0.0666
     21 H4         -0.5607    2.0201    0.5231 H         1 <0>         0.0722
     22 H5         -3.3939    2.5456   -3.3342 H         1 <0>         0.2124
     23 H6          1.4429    2.4895   -4.0310 H         1 <0>         0.0887
     24 H7          1.8245    2.1528   -2.3254 H         1 <0>         0.1043
     25 H8          3.5122    0.7830   -4.8308 H         1 <0>         0.0904
     26 H9          3.8938    0.4464   -3.1251 H         1 <0>         0.0794
     27 H10         3.5643   -1.9777   -3.5298 H         1 <0>         0.0426
     28 H11         3.1828   -1.6411   -5.2355 H         1 <0>         0.0872
     29 H12         4.5717   -2.9454   -2.8546 H         1 <0>         0.4184
     30 H13         5.8991   -4.1371   -1.3698 H         1 <0>         0.0845
     31 H14         7.1019   -4.1882   -2.6809 H         1 <0>         0.0661
     32 H15         7.0740   -2.8124   -1.5519 H         1 <0>         0.0619
     33 H16         7.7068   -1.3362   -4.8801 H         1 <0>         0.4510
@<TRIPOS>BOND
     1    1   19 1
     2    1   20 1
     3    1   21 1
     4    1    2 1
     5    2    6 1
     6    2    3 2
     7    3    8 1
     8    3    4 1
     9    4    5 1
    10    4    7 1
    11    5   22 1
    12    5    6 2
    13    8    9 1
    14    8   23 1
    15    8   24 1
    16    9   10 1
    17   10   11 1
    18   10   25 1
    19   10   26 1
    20   11   12 1
    21   11   27 1
    22   11   28 1
    23   12   13 2
    24   13   14 1
    25   13   16 1
    26   14   15 1
    27   14   29 1
    28   15   30 1
    29   15   31 1
    30   15   32 1
    31   16   17 1
    32   16   33 1
    33   17   18 3
@<TRIPOS>MOLECULE
ZINC18115268
   34    34     0     0     0
SMALL
USER_CHARGES

@<TRIPOS>ATOM
      1 C1         -0.3642    1.0562   -0.1351 C.3       1 <0>        -0.1037
      2 C2         -0.1563   -0.4363   -0.1547 C.2       1 <0>         0.0883
      3 C3          0.0009   -1.2106   -1.2452 C.2       1 <0>         0.0366
      4 N1          0.1580   -2.4780   -0.8351 N.pl3     1 <0>        -0.4666
      5 C4          0.1041   -2.5184    0.4682 C.cat     1 <0>         0.3136
      6 N2         -0.0849   -1.2645    0.9328 N.pl3     1 <0>        -0.5108
      7 H1         -0.1586   -1.0005    1.8632 H         1 <0>         0.4669
      8 C5          0.0003   -0.7364   -2.6757 C.3       1 <0>        -0.0404
      9 S1          1.6924   -0.3113   -3.1724 S.3       1 <0>        -0.2307
     10 C6          1.5206    0.2332   -4.8942 C.3       1 <0>        -0.0778
     11 C7          2.8931    0.6267   -5.4440 C.3       1 <0>         0.0964
     12 N3          2.7544    1.0665   -6.8345 N.2       1 <0>        -0.6377
     13 C8          3.0461    2.2929   -7.1619 C.2       1 <0>         0.6399
     14 N4          3.6056    3.1377   -6.2329 N.pl3     1 <0>        -0.7603
     15 C9          3.8463    4.5426   -6.5715 C.3       1 <0>         0.0589
     16 N5          2.7936    2.7442   -8.4409 N.pl3     1 <0>        -0.5838
     17 C10         3.0971    4.0201   -8.7814 C.1       1 <0>         0.4132
     18 N6          3.3516    5.0898   -9.0669 N.1       1 <0>        -0.3936
     19 H2          0.6027    1.5572   -0.0891 H         1 <0>         0.1091
     20 H3         -0.8891    1.3618   -1.0401 H         1 <0>         0.1062
     21 H4         -0.9567    1.3290    0.7382 H         1 <0>         0.0956
     22 H5          0.1991   -3.4068    1.0748 H         1 <0>         0.2697
     23 H6         -0.3797   -1.5284   -3.3209 H         1 <0>         0.1143
     24 H7         -0.6369    0.1433   -2.7665 H         1 <0>         0.1258
     25 H8          1.1087   -0.5792   -5.4928 H         1 <0>         0.0988
     26 H9          0.8515    1.0926   -4.9385 H         1 <0>         0.0869
     27 H10         3.3050    1.4392   -4.8454 H         1 <0>         0.0431
     28 H11         3.5622   -0.2326   -5.3998 H         1 <0>         0.0878
     29 H12         3.8410    2.8037   -5.3532 H         1 <0>         0.4166
     30 H13         2.9013    5.0217   -6.8277 H         1 <0>         0.0642
     31 H14         4.2915    5.0513   -5.7164 H         1 <0>         0.0859
     32 H15         4.5252    4.6001   -7.4223 H         1 <0>         0.0689
     33 H16         2.3988    2.1481   -9.0964 H         1 <0>         0.4524
     34 H17         0.2904   -3.2437   -1.4156 H         1 <0>         0.4663
@<TRIPOS>BOND
     1    1    2 1
     2    1   19 1
     3    1   20 1
     4    1   21 1
     5    2    6 1
     6    2    3 2
     7    3    4 1
     8    3    8 1
     9    4    5 2
    10    4   34 1
    11    5    6 1
    12    5   22 1
    13    6    7 1
    14    8    9 1
    15    8   23 1
    16    8   24 1
    17    9   10 1
    18   10   11 1
    19   10   25 1
    20   10   26 1
    21   11   12 1
    22   11   27 1
    23   11   28 1
    24   12   13 2
    25   13   14 1
    26   13   16 1
    27   14   15 1
    28   14   29 1
    29   15   30 1
    30   15   31 1
    31   15   32 1
    32   16   17 1
    33   16   33 1
    34   17   18 3
@<TRIPOS>MOLECULE
ZINC02021839
   61    63     0     0     0
SMALL
USER_CHARGES

@<TRIPOS>ATOM
      1 C1         -0.1514   -0.4126    5.6649 C.3       1 <0>        -0.1498
      2 C2         -0.0528   -1.7244    4.8837 C.3       1 <0>         0.0563
      3 O1         -0.0058   -1.4425    3.4835 O.3       1 <0>        -0.3526
      4 C3          0.0821   -2.4933    2.6530 C.2       1 <0>         0.4267
      5 O2          0.1179   -3.6153    3.0999 O.2       1 <0>        -0.4974
      6 C4          0.1360   -2.2737    1.1630 C.3       1 <0>         0.0975
      7 H1          1.0088   -1.6692    0.9162 H         1 <0>         0.1175
      8 C5         -1.1319   -1.5481    0.7082 C.3       1 <0>        -0.0924
      9 C6         -1.0222   -1.2143   -0.7809 C.3       1 <0>        -0.0754
     10 C7         -2.2711   -0.4997   -1.2288 C.ar      1 <0>        -0.0760
     11 C8         -3.3497   -1.2235   -1.7017 C.ar      1 <0>        -0.1132
     12 C9         -4.4952   -0.5679   -2.1126 C.ar      1 <0>        -0.1193
     13 C10        -4.5624    0.8114   -2.0502 C.ar      1 <0>        -0.1297
     14 C11        -3.4841    1.5351   -1.5765 C.ar      1 <0>        -0.1228
     15 C12        -2.3401    0.8793   -1.1616 C.ar      1 <0>        -0.1197
     16 N1          0.2296   -3.5708    0.4799 N.3       1 <0>        -0.6329
     17 C13         1.6246   -4.0243    0.4001 C.3       1 <0>         0.0669
     18 H2          2.1587   -3.7166    1.2991 H         1 <0>         0.0567
     19 C14         2.2932   -3.4033   -0.8280 C.3       1 <0>        -0.1325
     20 C15         1.6587   -5.5265    0.2849 C.2       1 <0>         0.4936
     21 O3          0.6838   -6.1262   -0.1162 O.2       1 <0>        -0.4375
     22 N2          2.7725   -6.2035    0.6276 N.am      1 <0>        -0.6017
     23 C16         3.9071   -5.5306    1.2689 C.3       1 <0>         0.1496
     24 C17         5.1950   -5.9864    0.6302 C.ar      1 <0>        -0.0957
     25 C18         6.3531   -5.2839    0.9348 C.ar      1 <0>        -0.1156
     26 C19         7.5636   -5.6591    0.3897 C.ar      1 <0>        -0.1318
     27 C20         7.6235   -6.7441   -0.4653 C.ar      1 <0>        -0.1212
     28 C21         6.4731   -7.4403   -0.7717 C.ar      1 <0>        -0.1231
     29 C22         5.2513   -7.0608   -0.2288 C.ar      1 <0>        -0.0496
     30 C23         4.0336   -7.8510   -0.6298 C.3       1 <0>        -0.0831
     31 C24         2.8966   -7.6493    0.3788 C.3       1 <0>         0.0780
     32 H3          3.1308   -8.1650    1.3101 H         1 <0>         0.0633
     33 C25         1.6061   -8.1815   -0.1891 C.2       1 <0>         0.5143
     34 O4          1.1849   -7.7539   -1.2504 O.co2     1 <0>        -0.6588
     35 O5          0.9833   -9.0396    0.4127 O.co2     1 <0>        -0.7021
     36 H4          0.7194    0.2059    5.4479 H         1 <0>         0.0655
     37 H5         -1.0567    0.1184    5.3707 H         1 <0>         0.0660
     38 H6         -0.1872   -0.6276    6.7329 H         1 <0>         0.0771
     39 H7          0.8525   -2.2554    5.1779 H         1 <0>         0.0655
     40 H8         -0.9237   -2.3429    5.1007 H         1 <0>         0.0664
     41 H9         -1.9971   -2.1900    0.8739 H         1 <0>         0.0723
     42 H10        -1.2481   -0.6270    1.2794 H         1 <0>         0.0780
     43 H11        -0.1570   -0.5724   -0.9466 H         1 <0>         0.0707
     44 H12        -0.9060   -2.1354   -1.3521 H         1 <0>         0.0951
     45 H13        -3.2973   -2.3011   -1.7504 H         1 <0>         0.1262
     46 H14        -5.3377   -1.1334   -2.4827 H         1 <0>         0.1197
     47 H15        -5.4571    1.3236   -2.3719 H         1 <0>         0.1169
     48 H16        -3.5364    2.6128   -1.5281 H         1 <0>         0.1176
     49 H17        -1.4990    1.4445   -0.7880 H         1 <0>         0.1199
     50 H18         1.7789   -3.7369   -1.7293 H         1 <0>         0.0741
     51 H19         2.2398   -2.3167   -0.7604 H         1 <0>         0.0592
     52 H20         3.3372   -3.7139   -0.8693 H         1 <0>         0.0605
     53 H21         3.8044   -4.4521    1.1486 H         1 <0>         0.0853
     54 H22         3.9219   -5.7767    2.3307 H         1 <0>         0.0702
     55 H23         6.3060   -4.4369    1.6032 H         1 <0>         0.1187
     56 H24         8.4608   -5.1080    0.6301 H         1 <0>         0.1181
     57 H25         8.5687   -7.0458   -0.8918 H         1 <0>         0.1178
     58 H26         6.5220   -8.2875   -1.4396 H         1 <0>         0.1203
     59 H27         3.7030   -7.5244   -1.6158 H         1 <0>         0.0893
     60 H28         4.2907   -8.9094   -0.6711 H         1 <0>         0.0758
     61 H29        -0.3496   -4.2611    0.9338 H         1 <0>         0.3671
@<TRIPOS>BOND
     1    1    2 1
     2    1   36 1
     3    1   37 1
     4    1   38 1
     5    2    3 1
     6    2   39 1
     7    2   40 1
     8    3    4 1
     9    4    5 2
    10    4    6 1
    11    6    7 1
    12    6    8 1
    13    6   16 1
    14    8    9 1
    15    8   41 1
    16    8   42 1
    17    9   10 1
    18    9   43 1
    19    9   44 1
    20   10   15 ar
    21   10   11 ar
    22   11   12 ar
    23   11   45 1
    24   12   13 ar
    25   12   46 1
    26   13   14 ar
    27   13   47 1
    28   14   15 ar
    29   14   48 1
    30   15   49 1
    31   16   17 1
    32   16   61 1
    33   17   18 1
    34   17   19 1
    35   17   20 1
    36   19   50 1
    37   19   51 1
    38   19   52 1
    39   20   21 2
    40   20   22 am
    41   22   31 1
    42   22   23 1
    43   23   24 1
    44   23   53 1
    45   23   54 1
    46   24   29 ar
    47   24   25 ar
    48   25   26 ar
    49   25   55 1
    50   26   27 ar
    51   26   56 1
    52   27   28 ar
    53   27   57 1
    54   28   29 ar
    55   28   58 1
    56   29   30 1
    57   30   31 1
    58   30   59 1
    59   30   60 1
    60   31   32 1
    61   31   33 1
    62   33   34 2
    63   33   35 1
@<TRIPOS>MOLECULE
ZINC14880004
   71    75     0     0     0
SMALL
USER_CHARGES

@<TRIPOS>ATOM
      1 C1          0.0420    1.0344   -0.6091 C.3       1 <0>        -0.1857
      2 C2         -0.0073   -0.4805   -0.4003 C.3       1 <0>         0.1826
      3 C3          0.5124   -1.1713   -1.6328 C.ar      1 <0>        -0.0839
      4 C4          0.4630   -0.5432   -2.8578 C.ar      1 <0>        -0.1366
      5 C5          0.9289   -1.1897   -3.9915 C.ar      1 <0>        -0.1044
      6 C6          1.4450   -2.4684   -3.9080 C.ar      1 <0>        -0.1534
      7 C7          1.5086   -3.1139   -2.6821 C.ar      1 <0>         0.1424
      8 C8          1.0454   -2.4593   -1.5323 C.ar      1 <0>        -0.0948
      9 C9          1.1373   -3.1039   -0.2139 C.2       1 <0>         0.3468
     10 C10         0.9948   -2.3344    0.9289 C.2       1 <0>        -0.4891
     11 C11         0.8467   -0.8530    0.8123 C.3       1 <0>         0.0273
     12 H1          1.8422   -0.4466    0.6335 H         1 <0>         0.0620
     13 C12         0.3161   -0.1591    2.0478 C.3       1 <0>        -0.1009
     14 C13        -0.1947   -1.1090    3.1167 C.3       1 <0>        -0.0638
     15 H2         -0.4188   -0.5459    4.0227 H         1 <0>         0.0929
     16 C14        -1.4584   -1.8269    2.6412 C.3       1 <0>         0.0027
     17 H3         -1.2351   -2.4006    1.7417 H         1 <0>         0.1919
     18 C15        -1.9347   -2.7577    3.7276 C.2       1 <0>         0.4256
     19 O1         -3.1168   -3.0184    3.8242 O.2       1 <0>        -0.5253
     20 C16        -1.0143   -3.3271    4.6330 C.2       1 <0>        -0.4534
     21 C17        -1.4795   -4.1753    5.6496 C.2       1 <0>         0.5633
     22 N1         -2.7743   -4.5619    5.6672 N.pl3     1 <0>        -0.6747
     23 C18        -3.2330   -5.5410    6.6557 C.3       1 <0>         0.2310
     24 N2         -3.7739   -4.8380    7.8267 N.3       1 <0>        -0.5389
     25 C19        -5.2155   -4.5306    7.6441 C.3       1 <0>         0.0339
     26 C20        -5.7157   -4.3030    9.0927 C.3       1 <0>        -0.1238
     27 C21        -4.9239   -5.3561    9.9014 C.3       1 <0>        -0.1314
     28 C22        -3.6921   -5.6839    9.0372 C.3       1 <0>         0.0345
     29 O2         -0.6371   -4.6034    6.6058 O.3       1 <0>        -0.4081
     30 C23         0.3669   -3.0567    4.5314 C.2       1 <0>         0.4074
     31 O3          1.1412   -3.5485    5.3273 O.2       1 <0>        -0.4579
     32 C24         0.8787   -2.1641    3.4258 C.3       1 <0>         0.0676
     33 C25         1.0414   -2.9892    2.1658 C.2       1 <0>         0.3646
     34 O4          1.2089   -4.1919    2.2270 O.2       1 <0>        -0.4831
     35 O5          2.1076   -1.5448    3.8107 O.3       1 <0>        -0.5239
     36 N3         -2.5038   -0.8379    2.3462 N.4       1 <0>        -0.3582
     37 C26        -3.6579   -1.5123    1.7370 C.3       1 <0>        -0.0552
     38 C27        -2.9219   -0.1810    3.5918 C.3       1 <0>        -0.0641
     39 O6          1.3581   -4.4331   -0.1182 O.3       1 <0>        -0.5773
     40 O7          2.0140   -4.3701   -2.5965 O.3       1 <0>        -0.4726
     41 O8         -1.3589   -0.8830   -0.1693 O.3       1 <0>        -0.5733
     42 H4          1.0729    1.3442   -0.7805 H         1 <0>         0.0758
     43 H5         -0.5662    1.3021   -1.4731 H         1 <0>         0.0641
     44 H6         -0.3456    1.5362    0.2775 H         1 <0>         0.0649
     45 H7          0.0597    0.4557   -2.9350 H         1 <0>         0.1246
     46 H8          0.8878   -0.6900   -4.9481 H         1 <0>         0.1235
     47 H9          1.7998   -2.9659   -4.7985 H         1 <0>         0.1270
     48 H10         1.1141    0.4481    2.4751 H         1 <0>         0.0903
     49 H11        -0.4987    0.5019    1.7522 H         1 <0>         0.0527
     50 H12        -4.0108   -6.1649    6.2153 H         1 <0>         0.0921
     51 H13        -2.3953   -6.1672    6.9627 H         1 <0>         0.0945
     52 H14        -5.3437   -3.6280    7.0466 H         1 <0>         0.0844
     53 H15        -5.7335   -5.3732    7.1861 H         1 <0>         0.0533
     54 H16        -5.4737   -3.2954    9.4306 H         1 <0>         0.0770
     55 H17        -6.7876   -4.4879    9.1642 H         1 <0>         0.0768
     56 H18        -4.6136   -4.9417   10.8605 H         1 <0>         0.0780
     57 H19        -5.5287   -6.2502   10.0526 H         1 <0>         0.0722
     58 H20        -3.7055   -6.7369    8.7559 H         1 <0>         0.0542
     59 H21        -2.7801   -5.4557    9.5888 H         1 <0>         0.0878
     60 H22        -1.0303   -5.2371    7.2214 H         1 <0>         0.4027
     61 H23         2.8159   -2.1703    4.0159 H         1 <0>         0.3942
     62 H24        -4.1583   -2.1249    2.4869 H         1 <0>         0.1418
     63 H25        -4.3541   -0.7662    1.3539 H         1 <0>         0.1113
     64 H26        -3.3178   -2.1461    0.9181 H         1 <0>         0.1226
     65 H27        -2.0889    0.3936    3.9969 H         1 <0>         0.1189
     66 H28        -3.7586    0.4870    3.3872 H         1 <0>         0.1221
     67 H29        -3.2284   -0.9361    4.3157 H         1 <0>         0.1236
     68 H30         2.9674   -4.4005   -2.4378 H         1 <0>         0.3887
     69 H31        -1.9751   -0.6075   -0.8618 H         1 <0>         0.3748
     70 H32        -3.3999   -4.1911    5.0253 H         1 <0>         0.4363
     71 H33        -2.1419   -0.1467    1.7065 H         1 <0>         0.4272
@<TRIPOS>BOND
     1    1    2 1
     2    1   42 1
     3    1   43 1
     4    1   44 1
     5    2   11 1
     6    2    3 1
     7    2   41 1
     8    3    8 ar
     9    3    4 ar
    10    4    5 ar
    11    4   45 1
    12    5    6 ar
    13    5   46 1
    14    6    7 ar
    15    6   47 1
    16    7    8 ar
    17    7   40 1
    18    8    9 1
    19    9   10 2
    20    9   39 1
    21   10   33 1
    22   10   11 1
    23   11   12 1
    24   11   13 1
    25   13   14 1
    26   13   48 1
    27   13   49 1
    28   14   15 1
    29   14   32 1
    30   14   16 1
    31   16   17 1
    32   16   18 1
    33   16   36 1
    34   18   19 2
    35   18   20 1
    36   20   21 2
    37   20   30 1
    38   21   22 1
    39   21   29 1
    40   22   23 1
    41   22   70 1
    42   23   24 1
    43   23   50 1
    44   23   51 1
    45   24   28 1
    46   24   25 1
    47   25   26 1
    48   25   52 1
    49   25   53 1
    50   26   27 1
    51   26   54 1
    52   26   55 1
    53   27   28 1
    54   27   56 1
    55   27   57 1
    56   28   58 1
    57   28   59 1
    58   29   60 1
    59   30   31 2
    60   30   32 1
    61   32   33 1
    62   32   35 1
    63   33   34 2
    64   35   61 1
    65   36   37 1
    66   36   38 1
    67   36   71 1
    68   37   62 1
    69   37   63 1
    70   37   64 1
    71   38   65 1
    72   38   66 1
    73   38   67 1
    74   40   68 1
    75   41   69 1
@<TRIPOS>MOLECULE
ZINC33965961
   64    64     0     0     0
SMALL
USER_CHARGES

@<TRIPOS>ATOM
      1 C1          6.1931   -6.5009    0.5871 C.ar      1 <0>        -0.1203
      2 C2          6.7715   -5.3499    0.0855 C.ar      1 <0>        -0.1248
      3 C3          7.2400   -4.3785    0.9502 C.ar      1 <0>        -0.0942
      4 C4          7.1296   -4.5578    2.3164 C.ar      1 <0>        -0.0807
      5 C5          6.5504   -5.7083    2.8179 C.ar      1 <0>        -0.0930
      6 C6          6.0832   -6.6804    1.9533 C.ar      1 <0>        -0.1277
      7 C7          7.6412   -3.4991    3.2591 C.3       1 <0>         0.0979
      8 O1          6.5967   -2.5648    3.5382 O.3       1 <0>        -0.3624
      9 C8          6.9793   -1.5139    4.4277 C.3       1 <0>         0.0590
     10 C9          5.7896   -0.5788    4.6539 C.3       1 <0>        -0.0549
     11 H1          6.0609    0.1845    5.3833 H         1 <0>         0.1342
     12 C10         4.6175   -1.3729    5.1702 C.2       1 <0>         0.5080
     13 O2          4.4651   -1.5245    6.3704 O.co2     1 <0>        -0.6667
     14 O3          3.8216   -1.8637    4.3878 O.co2     1 <0>        -0.6562
     15 N1          5.4243    0.0646    3.3848 N.4       1 <0>        -0.3281
     16 C11         6.5911    0.7721    2.8408 C.3       1 <0>        -0.0070
     17 C12         7.1368    1.7399    3.8927 C.3       1 <0>         0.0213
     18 N2          8.2221    2.5382    3.3073 N.3       1 <0>        -0.4895
     19 C13         8.6112    3.6351    4.2036 C.3       1 <0>         0.0486
     20 C14         7.4879    4.6725    4.2575 C.3       1 <0>        -0.0065
     21 N3          7.9179    5.8180    5.0704 N.4       1 <0>        -0.3318
     22 C15         9.0222    6.5114    4.3940 C.3       1 <0>        -0.0837
     23 C16         9.5446    7.6107    5.2827 C.2       1 <0>         0.4932
     24 O4          9.0433    7.7991    6.3781 O.co2     1 <0>        -0.6739
     25 O5         10.4684    8.3117    4.9064 O.co2     1 <0>        -0.6673
     26 C17         6.7916    6.7448    5.2450 C.3       1 <0>        -0.0804
     27 C18         5.7228    6.0853    6.0780 C.2       1 <0>         0.4982
     28 O6          5.9298    4.9953    6.5834 O.co2     1 <0>        -0.6822
     29 O7          4.6512    6.6418    6.2464 O.co2     1 <0>        -0.6674
     30 C19         9.3776    1.6935    2.9766 C.3       1 <0>        -0.0135
     31 C20        10.2846    2.4325    2.0267 C.2       1 <0>         0.4974
     32 O8          9.9471    3.5154    1.5798 O.co2     1 <0>        -0.6676
     33 O9         11.3560    1.9474    1.7052 O.co2     1 <0>        -0.7122
     34 C21         4.3352    1.0227    3.6172 C.3       1 <0>        -0.0792
     35 C22         3.8576    1.5703    2.2969 C.2       1 <0>         0.5016
     36 O10         4.3004    1.1197    1.2541 O.co2     1 <0>        -0.6813
     37 O11         3.0285    2.4638    2.2716 O.co2     1 <0>        -0.6583
     38 H2          5.8230   -7.2579   -0.0885 H         1 <0>         0.1170
     39 H3          6.8578   -5.2099   -0.9819 H         1 <0>         0.1214
     40 H4          7.6926   -3.4796    0.5583 H         1 <0>         0.1265
     41 H5          6.4644   -5.8486    3.8853 H         1 <0>         0.1223
     42 H6          5.6309   -7.5795    2.3451 H         1 <0>         0.1187
     43 H7          7.9682   -3.9669    4.1877 H         1 <0>         0.0575
     44 H8          8.4812   -2.9784    2.7992 H         1 <0>         0.0607
     45 H9          7.2924   -1.9404    5.3807 H         1 <0>         0.0791
     46 H10         7.8054   -0.9520    3.9922 H         1 <0>         0.0639
     47 H11         7.3633    0.0496    2.5764 H         1 <0>         0.1058
     48 H12         6.2959    1.3300    1.9521 H         1 <0>         0.1543
     49 H13         6.3379    2.4021    4.2263 H         1 <0>         0.0954
     50 H14         7.5191    1.1747    4.7427 H         1 <0>         0.0435
     51 H15         8.7900    3.2409    5.2039 H         1 <0>         0.0404
     52 H16         9.5214    4.1042    3.8299 H         1 <0>         0.1047
     53 H17         7.2565    5.0103    3.2473 H         1 <0>         0.1203
     54 H18         6.6000    4.2238    4.7029 H         1 <0>         0.1342
     55 H19         9.8229    5.8020    4.1849 H         1 <0>         0.1222
     56 H20         8.6633    6.9403    3.4584 H         1 <0>         0.1171
     57 H21         7.1385    7.6477    5.7476 H         1 <0>         0.1468
     58 H22         6.3819    7.0067    4.2694 H         1 <0>         0.1040
     59 H23         9.9246    1.4530    3.8883 H         1 <0>         0.0329
     60 H24         9.0320    0.7728    2.5067 H         1 <0>         0.0716
     61 H25         3.5102    0.5196    4.1217 H         1 <0>         0.1258
     62 H26         4.6975    1.8405    4.2401 H         1 <0>         0.1156
     63 H27         8.2283    5.4920    5.9734 H         1 <0>         0.4185
     64 H28         5.1199   -0.6376    2.7272 H         1 <0>         0.4312
@<TRIPOS>BOND
     1    1    6 ar
     2    1    2 ar
     3    1   38 1
     4    2    3 ar
     5    2   39 1
     6    3    4 ar
     7    3   40 1
     8    4    5 ar
     9    4    7 1
    10    5    6 ar
    11    5   41 1
    12    6   42 1
    13    7    8 1
    14    7   43 1
    15    7   44 1
    16    8    9 1
    17    9   10 1
    18    9   45 1
    19    9   46 1
    20   10   11 1
    21   10   12 1
    22   10   15 1
    23   12   13 2
    24   12   14 1
    25   15   16 1
    26   15   34 1
    27   15   64 1
    28   16   17 1
    29   16   47 1
    30   16   48 1
    31   17   18 1
    32   17   49 1
    33   17   50 1
    34   18   19 1
    35   18   30 1
    36   19   20 1
    37   19   51 1
    38   19   52 1
    39   20   21 1
    40   20   53 1
    41   20   54 1
    42   21   22 1
    43   21   26 1
    44   21   63 1
    45   22   23 1
    46   22   55 1
    47   22   56 1
    48   23   24 2
    49   23   25 1
    50   26   27 1
    51   26   57 1
    52   26   58 1
    53   27   28 2
    54   27   29 1
    55   30   31 1
    56   30   59 1
    57   30   60 1
    58   31   32 2
    59   31   33 1
    60   34   35 1
    61   34   61 1
    62   34   62 1
    63   35   36 2
    64   35   37 1
@<TRIPOS>MOLECULE
ZINC33965961
   65    65     0     0     0
SMALL
USER_CHARGES

@<TRIPOS>ATOM
      1 C1          8.3612   -6.5257    1.7837 C.ar      1 <0>        -0.1160
      2 C2          8.6300   -5.3038    1.1957 C.ar      1 <0>        -0.1249
      3 C3          9.0304   -4.2348    1.9753 C.ar      1 <0>        -0.0978
      4 C4          9.1616   -4.3875    3.3429 C.ar      1 <0>        -0.0879
      5 C5          8.8920   -5.6092    3.9310 C.ar      1 <0>        -0.0925
      6 C6          8.4929   -6.6785    3.1512 C.ar      1 <0>        -0.1241
      7 C7          9.5991   -3.2224    4.1927 C.3       1 <0>         0.1029
      8 O1          8.4505   -2.4906    4.6254 O.3       1 <0>        -0.3735
      9 C8          8.7563   -1.3588    5.4424 C.3       1 <0>         0.0578
     10 C9          7.4588   -0.6549    5.8449 C.3       1 <0>        -0.0617
     11 H1          7.6875    0.1713    6.5181 H         1 <0>         0.1352
     12 C10         6.5512   -1.6349    6.5426 C.2       1 <0>         0.5092
     13 O2          6.8362   -2.0442    7.6552 O.co2     1 <0>        -0.6517
     14 O3          5.5319   -2.0186    5.9945 O.co2     1 <0>        -0.6567
     15 N1          6.7897   -0.1372    4.6440 N.4       1 <0>        -0.3203
     16 C11         7.7229    0.7113    3.8909 C.3       1 <0>        -0.0420
     17 C12         8.2799    1.7989    4.8117 C.3       1 <0>        -0.0385
     18 N2          9.1318    2.7092    4.0348 N.4       1 <0>        -0.3404
     19 C13         8.3091    3.4367    3.0591 C.3       1 <0>        -0.0505
     20 C14         9.2119    4.2913    2.1672 C.3       1 <0>        -0.0533
     21 N3          8.3892    5.0188    1.1916 N.4       1 <0>        -0.3250
     22 C15         7.5319    5.9819    1.8954 C.3       1 <0>        -0.0922
     23 C16         8.3911    6.9385    2.6814 C.2       1 <0>         0.4954
     24 O4          9.6061    6.8631    2.6139 O.co2     1 <0>        -0.6714
     25 O5          7.8712    7.7880    3.3847 O.co2     1 <0>        -0.6421
     26 C17         9.2624    5.7355    0.2524 C.3       1 <0>        -0.0965
     27 C18         8.4282    6.3402   -0.8474 C.2       1 <0>         0.4934
     28 O6          7.2363    6.0926   -0.9148 O.co2     1 <0>        -0.6812
     29 O7          8.9453    7.0770   -1.6697 O.co2     1 <0>        -0.6565
     30 C19         9.7788    3.6674    4.9410 C.3       1 <0>        -0.0963
     31 C20        10.7433    2.9367    5.8393 C.2       1 <0>         0.4940
     32 O8         10.9616    1.7503    5.6625 O.co2     1 <0>        -0.6780
     33 O9         11.3052    3.5320    6.7429 O.co2     1 <0>        -0.6333
     34 C21         5.6177    0.6551    5.0395 C.3       1 <0>        -0.0903
     35 C22         4.8335    1.0396    3.8114 C.2       1 <0>         0.4962
     36 O10         5.2315    0.7118    2.7066 O.co2     1 <0>        -0.6824
     37 O11         3.8010    1.6784    3.9227 O.co2     1 <0>        -0.6444
     38 H2          8.0440   -7.3596    1.1751 H         1 <0>         0.1200
     39 H3          8.5275   -5.1844    0.1272 H         1 <0>         0.1222
     40 H4          9.2411   -3.2804    1.5159 H         1 <0>         0.1222
     41 H5          8.9948   -5.7286    4.9994 H         1 <0>         0.1244
     42 H6          8.2826   -7.6331    3.6106 H         1 <0>         0.1219
     43 H7         10.1438   -3.5910    5.0620 H         1 <0>         0.0629
     44 H8         10.2470   -2.5693    3.6081 H         1 <0>         0.0598
     45 H9          9.2835   -1.6887    6.3376 H         1 <0>         0.0923
     46 H10         9.3867   -0.6670    4.8837 H         1 <0>         0.0678
     47 H11         8.5428    0.1017    3.5112 H         1 <0>         0.1310
     48 H12         7.1985    1.1758    3.0558 H         1 <0>         0.1608
     49 H13         7.4554    2.3598    5.2517 H         1 <0>         0.1366
     50 H14         8.8691    1.3374    5.6040 H         1 <0>         0.1686
     51 H15         7.7600    2.7241    2.4438 H         1 <0>         0.1426
     52 H16         7.6047    4.0803    3.5860 H         1 <0>         0.1457
     53 H17         9.7611    5.0039    2.7826 H         1 <0>         0.1842
     54 H18         9.9164    3.6477    1.6403 H         1 <0>         0.1266
     55 H19         6.9388    6.5384    1.1697 H         1 <0>         0.1522
     56 H20         6.8675    5.4481    2.5748 H         1 <0>         0.1119
     57 H21         9.7940    6.5262    0.7818 H         1 <0>         0.1690
     58 H22         9.9819    5.0392   -0.1783 H         1 <0>         0.1078
     59 H23        10.3194    4.4120    4.3568 H         1 <0>         0.1414
     60 H24         9.0206    4.1622    5.5480 H         1 <0>         0.1316
     61 H25         4.9867    0.0639    5.7032 H         1 <0>         0.1492
     62 H26         5.9462    1.5561    5.5577 H         1 <0>         0.1061
     63 H27         7.8133    4.3647    0.6831 H         1 <0>         0.4097
     64 H28         6.4942   -0.9087    4.0646 H         1 <0>         0.4426
     65 H29         9.8377    2.1766    3.5488 H         1 <0>         0.4259
@<TRIPOS>BOND
     1    1    6 ar
     2    1    2 ar
     3    1   38 1
     4    2    3 ar
     5    2   39 1
     6    3    4 ar
     7    3   40 1
     8    4    5 ar
     9    4    7 1
    10    5    6 ar
    11    5   41 1
    12    6   42 1
    13    7    8 1
    14    7   43 1
    15    7   44 1
    16    8    9 1
    17    9   10 1
    18    9   45 1
    19    9   46 1
    20   10   11 1
    21   10   12 1
    22   10   15 1
    23   12   13 2
    24   12   14 1
    25   15   16 1
    26   15   34 1
    27   15   64 1
    28   16   17 1
    29   16   47 1
    30   16   48 1
    31   17   18 1
    32   17   49 1
    33   17   50 1
    34   18   19 1
    35   18   30 1
    36   18   65 1
    37   19   20 1
    38   19   51 1
    39   19   52 1
    40   20   21 1
    41   20   53 1
    42   20   54 1
    43   21   22 1
    44   21   26 1
    45   21   63 1
    46   22   23 1
    47   22   55 1
    48   22   56 1
    49   23   24 2
    50   23   25 1
    51   26   27 1
    52   26   57 1
    53   26   58 1
    54   27   28 2
    55   27   29 1
    56   30   31 1
    57   30   59 1
    58   30   60 1
    59   31   32 2
    60   31   33 1
    61   34   35 1
    62   34   61 1
    63   34   62 1
    64   35   36 2
    65   35   37 1
@<TRIPOS>MOLECULE
ZINC13537284
   40    43     0     0     0
SMALL
USER_CHARGES

@<TRIPOS>ATOM
      1 C1         -0.0184    1.5028    0.0103 C.3       1 <0>        -0.0723
      2 C2          0.0021   -0.0041    0.0020 C.2       1 <0>         0.0146
      3 C3          0.0078   -0.7894   -1.0919 C.2       1 <0>        -0.0458
      4 N1          0.0283   -2.0846   -0.6496 N.pl3     1 <0>        -0.5564
      5 C4          0.0343   -2.0456    0.7003 C.2       1 <0>         0.1929
      6 N2          0.0236   -0.7980    1.0829 N.2       1 <0>        -0.4931
      7 C5         -0.0061   -0.3305   -2.5273 C.3       1 <0>         0.1874
      8 N3          1.3466    0.0662   -2.9263 N.am      1 <0>        -0.6121
      9 C6          1.7599    1.4493   -2.7279 C.3       1 <0>         0.1170
     10 C7          3.2127    1.5693   -2.2674 C.3       1 <0>        -0.0758
     11 C8          4.0739    0.6813   -3.1309 C.2       1 <0>         0.1249
     12 C9          3.5632   -0.4694   -3.6937 C.2       1 <0>        -0.2405
     13 C10         4.6357   -1.0778   -4.4535 C.ar      1 <0>        -0.0512
     14 C11         4.7211   -2.2363   -5.2267 C.ar      1 <0>        -0.0663
     15 C12         5.9419   -2.5058   -5.8197 C.ar      1 <0>        -0.1379
     16 C13         7.0338   -1.6700   -5.6585 C.ar      1 <0>        -0.1034
     17 C14         6.9718   -0.5162   -4.8964 C.ar      1 <0>        -0.1214
     18 C15         5.7544   -0.2212   -4.2877 C.ar      1 <0>         0.0798
     19 N4          5.3680    0.8205   -3.4849 N.pl3     1 <0>        -0.4528
     20 C16         6.2356    1.9262   -3.0714 C.3       1 <0>         0.0673
     21 C17         2.1690   -0.8666   -3.4608 C.2       1 <0>         0.6033
     22 O1          1.7706   -1.9821   -3.7392 O.2       1 <0>        -0.5357
     23 H1          1.0042    1.8801    0.0026 H         1 <0>         0.0677
     24 H2         -0.5455    1.8639   -0.8728 H         1 <0>         0.0686
     25 H3         -0.5286    1.8543    0.9071 H         1 <0>         0.0737
     26 H4          0.0496   -2.9046    1.3548 H         1 <0>         0.2086
     27 H5         -0.3491   -1.1447   -3.1657 H         1 <0>         0.0951
     28 H6         -0.6795    0.5204   -2.6302 H         1 <0>         0.1035
     29 H7          1.6424    1.9900   -3.6670 H         1 <0>         0.0713
     30 H8          1.1140    1.9057   -1.9779 H         1 <0>         0.1003
     31 H9          3.5422    2.6037   -2.3648 H         1 <0>         0.1009
     32 H10         3.2929    1.2553   -1.2267 H         1 <0>         0.0981
     33 H11         3.8733   -2.8926   -5.3561 H         1 <0>         0.1363
     34 H12         6.0460   -3.3939   -6.4254 H         1 <0>         0.1228
     35 H13         7.9641   -1.9264   -6.1434 H         1 <0>         0.1245
     36 H14         7.8309    0.1275   -4.7784 H         1 <0>         0.1287
     37 H15         6.7354    1.6664   -2.1383 H         1 <0>         0.0778
     38 H16         6.9818    2.1110   -3.8441 H         1 <0>         0.0888
     39 H17         5.6350    2.8238   -2.9242 H         1 <0>         0.0883
     40 H18         0.0368   -2.8816   -1.2024 H         1 <0>         0.4230
@<TRIPOS>BOND
     1    1    2 1
     2    1   23 1
     3    1   24 1
     4    1   25 1
     5    2    6 1
     6    2    3 2
     7    3    4 1
     8    3    7 1
     9    4    5 1
    10    4   40 1
    11    5    6 2
    12    5   26 1
    13    7    8 1
    14    7   27 1
    15    7   28 1
    16    8   21 am
    17    8    9 1
    18    9   10 1
    19    9   29 1
    20    9   30 1
    21   10   11 1
    22   10   31 1
    23   10   32 1
    24   11   19 1
    25   11   12 2
    26   12   13 1
    27   12   21 1
    28   13   18 ar
    29   13   14 ar
    30   14   15 ar
    31   14   33 1
    32   15   16 ar
    33   15   34 1
    34   16   17 ar
    35   16   35 1
    36   17   18 ar
    37   17   36 1
    38   18   19 1
    39   19   20 1
    40   20   37 1
    41   20   38 1
    42   20   39 1
    43   21   22 2
@<TRIPOS>MOLECULE
ZINC18115268
   33    33     0     0     0
SMALL
USER_CHARGES

@<TRIPOS>ATOM
      1 C1          0.0576    1.6155   -0.2016 C.3       1 <0>        -0.0714
      2 C2         -0.6976    1.9606   -1.4592 C.2       1 <0>         0.0344
      3 C3         -0.1672    2.0910   -2.6902 C.2       1 <0>        -0.0223
      4 N1         -1.1976    2.4072   -3.5339 N.pl3     1 <0>        -0.5619
      5 C4         -2.3226    2.4591   -2.7886 C.2       1 <0>         0.2019
      6 N2         -2.0167    2.1861   -1.5497 N.2       1 <0>        -0.4918
      7 H1         -1.1320    2.5647   -4.4888 H         1 <0>         0.4214
      8 C5          1.2822    1.9218   -3.0664 C.3       1 <0>        -0.0043
      9 S1          1.5937    0.1906   -3.5099 S.3       1 <0>        -0.2479
     10 C6          3.3578    0.1560   -3.9310 C.3       1 <0>        -0.0843
     11 C7          3.7592   -1.2656   -4.3294 C.3       1 <0>         0.0926
     12 N3          5.1839   -1.2935   -4.6696 N.2       1 <0>        -0.6254
     13 C8          6.0089   -2.0092   -3.9600 C.2       1 <0>         0.6345
     14 N4          7.3605   -1.9417   -4.2018 N.pl3     1 <0>        -0.7158
     15 C9          8.2885   -2.7466   -3.4036 C.3       1 <0>         0.0682
     16 N5          5.5265   -2.8349   -2.9657 N.pl3     1 <0>        -0.6336
     17 C10         6.3887   -3.4875   -2.1492 C.1       1 <0>         0.4099
     18 N6          7.1116   -4.0346   -1.4647 N.1       1 <0>        -0.4075
     19 H2          0.0808    0.5329   -0.0772 H         1 <0>         0.0737
     20 H3          1.0769    1.9948   -0.2742 H         1 <0>         0.0666
     21 H4         -0.4387    2.0692    0.6563 H         1 <0>         0.0722
     22 H5         -3.3122    2.6852   -3.1575 H         1 <0>         0.2124
     23 H6          1.5139    2.5622   -3.9174 H         1 <0>         0.0888
     24 H7          1.9118    2.1992   -2.2209 H         1 <0>         0.1045
     25 H8          3.5458    0.8336   -4.7639 H         1 <0>         0.0909
     26 H9          3.9437    0.4705   -3.0674 H         1 <0>         0.0800
     27 H10         3.5712   -1.9431   -3.4965 H         1 <0>         0.0392
     28 H11         3.1732   -1.5801   -5.1930 H         1 <0>         0.0889
     29 H12         7.6997   -1.3611   -4.9008 H         1 <0>         0.4267
     30 H13         9.3095   -2.5620   -3.7376 H         1 <0>         0.0900
     31 H14         8.1951   -2.4734   -2.3525 H         1 <0>         0.0661
     32 H15         8.0514   -3.8034   -3.5268 H         1 <0>         0.0621
     33 H16         4.5700   -2.9484   -2.8511 H         1 <0>         0.4413
@<TRIPOS>BOND
     1    1   19 1
     2    1   20 1
     3    1   21 1
     4    1    2 1
     5    2    6 1
     6    2    3 2
     7    3    8 1
     8    3    4 1
     9    4    5 1
    10    4    7 1
    11    5   22 1
    12    5    6 2
    13    8    9 1
    14    8   23 1
    15    8   24 1
    16    9   10 1
    17   10   11 1
    18   10   25 1
    19   10   26 1
    20   11   12 1
    21   11   27 1
    22   11   28 1
    23   12   13 2
    24   13   14 1
    25   13   16 1
    26   14   15 1
    27   14   29 1
    28   15   30 1
    29   15   31 1
    30   15   32 1
    31   16   17 1
    32   16   33 1
    33   17   18 3
@<TRIPOS>MOLECULE
ZINC18115268
   34    34     0     0     0
SMALL
USER_CHARGES

@<TRIPOS>ATOM
      1 C1         -0.4661    1.1866   -0.1622 C.3       1 <0>        -0.1038
      2 C2         -0.2855   -0.3096   -0.1656 C.2       1 <0>         0.0885
      3 C3         -0.1306   -1.0970   -1.2470 C.2       1 <0>         0.0363
      4 N1         -0.0014   -2.3631   -0.8234 N.pl3     1 <0>        -0.4665
      5 C4         -0.0704   -2.3901    0.4795 C.cat     1 <0>         0.3136
      6 N2         -0.2415   -1.1286    0.9303 N.pl3     1 <0>        -0.5108
      7 H1         -0.3205   -0.8544    1.8573 H         1 <0>         0.4669
      8 C5         -0.1066   -0.6365   -2.6817 C.3       1 <0>        -0.0403
      9 S1          1.5984   -0.2473   -3.1634 S.3       1 <0>        -0.2309
     10 C6          1.4558    0.2839   -4.8920 C.3       1 <0>        -0.0786
     11 C7          2.8413    0.6469   -5.4300 C.3       1 <0>         0.0912
     12 N3          2.7261    1.0759   -6.8260 N.2       1 <0>        -0.6312
     13 C8          3.0461    2.2929   -7.1619 C.2       1 <0>         0.6417
     14 N4          2.8244    2.7326   -8.4453 N.pl3     1 <0>        -0.7120
     15 C9          3.1844    4.1016   -8.8231 C.3       1 <0>         0.0654
     16 N5          3.6076    3.1407   -6.2296 N.pl3     1 <0>        -0.6334
     17 C10         3.8302    4.4401   -6.5428 C.1       1 <0>         0.4045
     18 N6          4.0169    5.5295   -6.8053 N.1       1 <0>        -0.3971
     19 H2          0.5094    1.6702   -0.1101 H         1 <0>         0.1092
     20 H3         -0.9752    1.4931   -1.0759 H         1 <0>         0.1063
     21 H4         -1.0630    1.4785    0.7018 H         1 <0>         0.0956
     22 H5          0.0015   -3.2743    1.0955 H         1 <0>         0.2697
     23 H6         -0.4939   -1.4276   -3.3238 H         1 <0>         0.1143
     24 H7         -0.7264    0.2538   -2.7879 H         1 <0>         0.1260
     25 H8          1.0356   -0.5265   -5.4876 H         1 <0>         0.0992
     26 H9          0.8031    1.1549   -4.9518 H         1 <0>         0.0875
     27 H10         3.2615    1.4573   -4.8344 H         1 <0>         0.0398
     28 H11         3.4939   -0.2241   -5.3702 H         1 <0>         0.0894
     29 H12         2.4296    2.1365   -9.1008 H         1 <0>         0.4284
     30 H13         4.2540    4.2500   -8.6750 H         1 <0>         0.0641
     31 H14         2.9365    4.2662   -9.8717 H         1 <0>         0.0936
     32 H15         2.6305    4.8070   -8.2037 H         1 <0>         0.0674
     33 H16         3.8430    2.8067   -5.3499 H         1 <0>         0.4395
     34 H17         0.1233   -3.1366   -1.3952 H         1 <0>         0.4663
@<TRIPOS>BOND
     1    1    2 1
     2    1   19 1
     3    1   20 1
     4    1   21 1
     5    2    6 1
     6    2    3 2
     7    3    4 1
     8    3    8 1
     9    4    5 2
    10    4   34 1
    11    5    6 1
    12    5   22 1
    13    6    7 1
    14    8    9 1
    15    8   23 1
    16    8   24 1
    17    9   10 1
    18   10   11 1
    19   10   25 1
    20   10   26 1
    21   11   12 1
    22   11   27 1
    23   11   28 1
    24   12   13 2
    25   13   14 1
    26   13   16 1
    27   14   15 1
    28   14   29 1
    29   15   30 1
    30   15   31 1
    31   15   32 1
    32   16   17 1
    33   16   33 1
    34   17   18 3
@<TRIPOS>MOLECULE
ZINC02510048
   38    39     0     0     0
SMALL
USER_CHARGES

@<TRIPOS>ATOM
      1 C1         -0.0178    1.4648    0.0101 C.3       1 <0>        -0.0550
      2 N1          0.0021   -0.0041    0.0020 N.4       1 <0>        -0.3840
      3 C2          0.7126   -0.4907    1.1921 C.3       1 <0>        -0.0466
      4 C3         -1.3761   -0.5125    0.0124 C.3       1 <0>        -0.0390
      5 C4         -2.0780   -0.1101   -1.2861 C.3       1 <0>         0.1042
      6 N2         -3.4524   -0.6172   -1.2757 N.pl3     1 <0>        -0.6005
      7 C5         -4.5324    0.2051   -0.7248 C.3       1 <0>         0.2177
      8 C6         -5.1228    1.0574   -1.8185 C.2       1 <0>        -0.1809
      9 C7         -6.1533    0.7802   -2.6543 C.2       1 <0>        -0.1162
     10 C8         -6.5281    1.7239   -3.5922 C.2       1 <0>        -0.1625
     11 C9         -5.8540    2.8985   -3.6485 C.2       1 <0>        -0.1511
     12 S1         -4.6517    2.6971   -2.3443 S.3       1 <0>         0.0095
     13 C10        -3.7317   -1.8786   -1.7886 C.ar      1 <0>         0.3910
     14 C11        -2.6890   -2.6983   -2.2090 C.ar      1 <0>        -0.2421
     15 C12        -2.9813   -3.9509   -2.7172 C.ar      1 <0>        -0.0310
     16 C13        -4.3116   -4.3435   -2.7884 C.ar      1 <0>        -0.2148
     17 C14        -5.2958   -3.4791   -2.3533 C.ar      1 <0>         0.1539
     18 N3         -4.9872   -2.2914   -1.8677 N.ar      1 <0>        -0.5263
     19 H1          1.0047    1.8421    0.0024 H         1 <0>         0.1279
     20 H2         -0.5450    1.8259   -0.8730 H         1 <0>         0.1242
     21 H3         -0.5280    1.8163    0.9069 H         1 <0>         0.1245
     22 H4          0.2024   -0.1392    2.0889 H         1 <0>         0.1227
     23 H5          0.7273   -1.5806    1.1861 H         1 <0>         0.1237
     24 H6          1.7352   -0.1134    1.1844 H         1 <0>         0.1267
     25 H7         -1.3618   -1.5992    0.0961 H         1 <0>         0.1345
     26 H8         -1.9129   -0.0898    0.8617 H         1 <0>         0.1342
     27 H9         -2.0923    0.9766   -1.3697 H         1 <0>         0.1010
     28 H10        -1.5412   -0.5328   -2.1354 H         1 <0>         0.0998
     29 H11        -5.3060   -0.4413   -0.3102 H         1 <0>         0.1144
     30 H12        -4.1354    0.8470    0.0617 H         1 <0>         0.0863
     31 H13        -6.6736   -0.1639   -2.5886 H         1 <0>         0.1392
     32 H14        -7.3455    1.5280   -4.2703 H         1 <0>         0.1376
     33 H15        -6.0072    3.7397   -4.3083 H         1 <0>         0.1885
     34 H16        -1.6654   -2.3609   -2.1397 H         1 <0>         0.1228
     35 H17        -2.1928   -4.6089   -3.0516 H         1 <0>         0.1370
     36 H18        -4.5733   -5.3151   -3.1805 H         1 <0>         0.1388
     37 H19        -6.3315   -3.7802   -2.4072 H         1 <0>         0.1625
     38 H20         0.4743   -0.3295   -0.8281 H         1 <0>         0.4273
@<TRIPOS>BOND
     1    1    2 1
     2    1   19 1
     3    1   20 1
     4    1   21 1
     5    2    3 1
     6    2    4 1
     7    2   38 1
     8    3   22 1
     9    3   23 1
    10    3   24 1
    11    4    5 1
    12    4   25 1
    13    4   26 1
    14    5    6 1
    15    5   27 1
    16    5   28 1
    17    6    7 1
    18    6   13 1
    19    7    8 1
    20    7   29 1
    21    7   30 1
    22    8   12 1
    23    8    9 2
    24    9   10 1
    25    9   31 1
    26   10   11 2
    27   10   32 1
    28   11   12 1
    29   11   33 1
    30   13   18 ar
    31   13   14 ar
    32   14   15 ar
    33   14   34 1
    34   15   16 ar
    35   15   35 1
    36   16   17 ar
    37   16   36 1
    38   17   18 ar
    39   17   37 1
@<TRIPOS>MOLECULE
ZINC01995484
   47    48     0     0     0
SMALL
USER_CHARGES

@<TRIPOS>ATOM
      1 C1         -0.0187    1.5258    0.0104 C.3       1 <0>        -0.1573
      2 C2          0.0021   -0.0041    0.0020 C.3       1 <0>        -0.0805
      3 C3          0.7182   -0.4975   -1.2568 C.3       1 <0>        -0.1377
      4 C4          0.7421   -0.5109    1.2415 C.3       1 <0>         0.1079
      5 H1          1.7647   -0.1336    1.2338 H         1 <0>         0.1178
      6 C5          0.0367   -0.0249    2.4814 C.2       1 <0>         0.4267
      7 O1         -0.7063   -0.7640    3.0828 O.2       1 <0>        -0.5221
      8 O2          0.2338    1.2291    2.9177 O.3       1 <0>        -0.3034
      9 C6         -0.4671    1.6226    4.0993 C.3       1 <0>         0.0688
     10 C7         -0.1190    3.0731    4.4395 C.3       1 <0>         0.1047
     11 H2         -0.7199    3.4016    5.2875 H         1 <0>         0.1017
     12 C8         -0.4118    3.9647    3.2311 C.3       1 <0>         0.0527
     13 O3          0.2866    3.4639    2.0894 O.3       1 <0>        -0.5333
     14 O4          1.2673    3.1644    4.7742 O.3       1 <0>        -0.3683
     15 C9          1.5723    4.2004    5.7100 C.3       1 <0>         0.2941
     16 N1          3.0119    4.2052    5.9811 N.pl3     1 <0>        -0.4588
     17 C10         3.9392    3.3667    5.4336 C.2       1 <0>         0.2327
     18 N2          5.1206    3.6526    5.8974 N.2       1 <0>        -0.4242
     19 C11         5.0229    4.6875    6.7669 C.2       1 <0>        -0.1405
     20 C12         3.6737    5.0551    6.8252 C.2       1 <0>         0.3082
     21 N3          3.2959    6.0673    7.6147 N.2       1 <0>        -0.5846
     22 C13         4.1719    6.7283    8.3380 C.2       1 <0>         0.6578
     23 N4          5.4994    6.4194    8.3214 N.am      1 <0>        -0.6568
     24 H3          6.1198    6.9272    8.8674 H         1 <0>         0.4202
     25 C14         5.9543    5.4038    7.5545 C.2       1 <0>         0.5954
     26 O5          7.1401    5.1210    7.5315 O.2       1 <0>        -0.5047
     27 N5          3.7376    7.7594    9.1325 N.pl3     1 <0>        -0.8179
     28 N6          0.7620   -1.9797    1.2335 N.3       1 <0>        -0.8133
     29 H4          1.0039    1.9031    0.0027 H         1 <0>         0.0643
     30 H5         -0.5459    1.8868   -0.8726 H         1 <0>         0.0537
     31 H6         -0.5289    1.8773    0.9072 H         1 <0>         0.0762
     32 H7         -1.0205   -0.3814    0.0098 H         1 <0>         0.0693
     33 H8          1.7408   -0.1202   -1.2645 H         1 <0>         0.0565
     34 H9          0.7330   -1.5874   -1.2628 H         1 <0>         0.0683
     35 H10         0.1910   -0.1364   -2.1398 H         1 <0>         0.0539
     36 H11        -1.5405    1.5364    3.9307 H         1 <0>         0.0836
     37 H12        -0.1762    0.9754    4.9268 H         1 <0>         0.0748
     38 H13        -1.4832    3.9647    3.0306 H         1 <0>         0.0584
     39 H14        -0.0816    4.9819    3.4417 H         1 <0>         0.0498
     40 H15         0.1468    3.9816    1.2846 H         1 <0>         0.3732
     41 H16         1.2776    5.1639    5.2942 H         1 <0>         0.0797
     42 H17         1.0284    4.0235    6.6379 H         1 <0>         0.0804
     43 H18         3.7244    2.5830    4.7221 H         1 <0>         0.2247
     44 H19         2.7960    7.9912    9.1546 H         1 <0>         0.4291
     45 H20         4.3722    8.2565    9.6720 H         1 <0>         0.4182
     46 H21         1.3004   -2.3383    2.0078 H         1 <0>         0.3489
     47 H22        -0.1750   -2.3541    1.2404 H         1 <0>         0.3517
@<TRIPOS>BOND
     1    1    2 1
     2    1   29 1
     3    1   30 1
     4    1   31 1
     5    2    3 1
     6    2    4 1
     7    2   32 1
     8    3   33 1
     9    3   34 1
    10    3   35 1
    11    4    5 1
    12    4    6 1
    13    4   28 1
    14    6    7 2
    15    6    8 1
    16    8    9 1
    17    9   10 1
    18    9   36 1
    19    9   37 1
    20   10   11 1
    21   10   12 1
    22   10   14 1
    23   12   13 1
    24   12   38 1
    25   12   39 1
    26   13   40 1
    27   14   15 1
    28   15   16 1
    29   15   41 1
    30   15   42 1
    31   16   20 1
    32   16   17 1
    33   17   18 2
    34   17   43 1
    35   18   19 1
    36   19   25 1
    37   19   20 2
    38   20   21 1
    39   21   22 2
    40   22   23 1
    41   22   27 1
    42   23   24 1
    43   23   25 am
    44   25   26 2
    45   27   44 1
    46   27   45 1
    47   28   46 1
    48   28   47 1
@<TRIPOS>MOLECULE
ZINC03875544
   39    41     0     0     0
SMALL
USER_CHARGES

@<TRIPOS>ATOM
      1 C1          1.8722    0.4408    1.0931 C.3       1 <0>        -0.2062
      2 C2          1.3104   -0.8465    0.5467 C.2       1 <0>         0.3543
      3 O1          1.5398   -1.8913    1.1070 O.2       1 <0>        -0.4564
      4 C3          0.4622   -0.8298   -0.6988 C.3       1 <0>        -0.1785
      5 C4          0.0229   -2.2561   -1.0359 C.3       1 <0>         0.0466
      6 H1          0.8990   -2.9020   -1.0934 H         1 <0>         0.0961
      7 C5         -0.6930   -2.2611   -2.3620 C.ar      1 <0>        -0.0782
      8 C6         -1.4127   -1.1511   -2.7631 C.ar      1 <0>        -0.0968
      9 C7         -2.0693   -1.1557   -3.9795 C.ar      1 <0>        -0.1239
     10 C8         -2.0059   -2.2701   -4.7950 C.ar      1 <0>        -0.1232
     11 C9         -1.2854   -3.3797   -4.3943 C.ar      1 <0>        -0.1251
     12 C10        -0.6252   -3.3735   -3.1798 C.ar      1 <0>        -0.1142
     13 C11        -0.9052   -2.7628    0.0379 C.2       1 <0>        -0.3180
     14 C12        -2.0465   -2.0167    0.3999 C.2       1 <0>         0.4396
     15 O2         -2.3083   -0.9548   -0.1411 O.2       1 <0>        -0.4688
     16 C13        -2.9121   -2.5728    1.4599 C.ar      1 <0>        -0.2161
     17 C14        -4.0605   -1.9062    1.8823 C.ar      1 <0>        -0.0310
     18 C15        -4.8416   -2.4591    2.8739 C.ar      1 <0>        -0.1447
     19 C16        -4.4878   -3.6709    3.4488 C.ar      1 <0>        -0.0593
     20 C17        -3.3539   -4.3395    3.0389 C.ar      1 <0>        -0.1374
     21 C18        -2.5535   -3.7987    2.0402 C.ar      1 <0>         0.1521
     22 O3         -1.4397   -4.4367    1.6230 O.3       1 <0>        -0.2603
     23 C19        -0.6512   -3.9438    0.6596 C.2       1 <0>         0.3790
     24 O4          0.4425   -4.6459    0.2950 O.3       1 <0>        -0.4056
     25 H2          2.8501    0.6276    0.6494 H         1 <0>         0.0950
     26 H3          1.1996    1.2631    0.8494 H         1 <0>         0.0844
     27 H4          1.9733    0.3626    2.1755 H         1 <0>         0.0822
     28 H5         -0.4177   -0.2087   -0.5309 H         1 <0>         0.1215
     29 H6          1.0415   -0.4226   -1.5275 H         1 <0>         0.1020
     30 H7         -1.4623   -0.2805   -2.1260 H         1 <0>         0.1334
     31 H8         -2.6322   -0.2888   -4.2926 H         1 <0>         0.1197
     32 H9         -2.5195   -2.2739   -5.7451 H         1 <0>         0.1184
     33 H10        -1.2361   -4.2505   -5.0313 H         1 <0>         0.1190
     34 H11        -0.0592   -4.2390   -2.8684 H         1 <0>         0.1180
     35 H12        -4.3365   -0.9623    1.4359 H         1 <0>         0.1445
     36 H13        -5.7327   -1.9467    3.2051 H         1 <0>         0.1382
     37 H14        -5.1068   -4.0948    4.2257 H         1 <0>         0.1428
     38 H15        -3.0879   -5.2822    3.4938 H         1 <0>         0.1439
     39 H16         0.5578   -5.4744    0.7801 H         1 <0>         0.4127
@<TRIPOS>BOND
     1    1    2 1
     2    1   25 1
     3    1   26 1
     4    1   27 1
     5    2    3 2
     6    2    4 1
     7    4    5 1
     8    4   28 1
     9    4   29 1
    10    5    6 1
    11    5    7 1
    12    5   13 1
    13    7   12 ar
    14    7    8 ar
    15    8    9 ar
    16    8   30 1
    17    9   10 ar
    18    9   31 1
    19   10   11 ar
    20   10   32 1
    21   11   12 ar
    22   11   33 1
    23   12   34 1
    24   13   23 2
    25   13   14 1
    26   14   15 2
    27   14   16 1
    28   16   21 ar
    29   16   17 ar
    30   17   18 ar
    31   17   35 1
    32   18   19 ar
    33   18   36 1
    34   19   20 ar
    35   19   37 1
    36   20   21 ar
    37   20   38 1
    38   21   22 1
    39   22   23 1
    40   23   24 1
    41   24   39 1
@<TRIPOS>MOLECULE
ZINC03875393
   50    52     0     0     0
SMALL
USER_CHARGES

@<TRIPOS>ATOM
      1 C1         -0.0187    1.5258    0.0104 C.3       1 <0>        -0.1448
      2 C2          0.0021   -0.0041    0.0020 C.3       1 <0>        -0.1080
      3 C3          0.7421   -0.5109    1.2415 C.3       1 <0>        -0.1500
      4 C4         -1.4333   -0.5336    0.0129 C.3       1 <0>        -0.1005
      5 C5         -1.4157   -2.0577   -0.1212 C.3       1 <0>        -0.1353
      6 H1         -0.7900   -2.4883    0.6606 H         1 <0>         0.1174
      7 C6         -2.8429   -2.6040   -0.0011 C.3       1 <0>         0.0657
      8 N1         -2.8384   -4.0459   -0.2843 N.3       1 <0>        -0.5329
      9 C7         -4.1440   -4.6425    0.0344 C.3       1 <0>         0.0552
     10 C8         -3.9901   -6.1626    0.0819 C.3       1 <0>        -0.0737
     11 C9         -3.3131   -6.6468   -1.1751 C.ar      1 <0>        -0.0605
     12 C10        -3.4164   -7.9899   -1.5055 C.ar      1 <0>        -0.1742
     13 C11        -2.8090   -8.4778   -2.6486 C.ar      1 <0>         0.1066
     14 C12        -2.0906   -7.6128   -3.4692 C.ar      1 <0>         0.1007
     15 C13        -1.9915   -6.2744   -3.1351 C.ar      1 <0>        -0.1680
     16 C14        -2.6032   -5.7888   -1.9873 C.ar      1 <0>        -0.0747
     17 C15        -2.4674   -4.3222   -1.6738 C.3       1 <0>         0.1412
     18 H2         -3.1144   -3.7506   -2.3392 H         1 <0>         0.0572
     19 C16        -1.0148   -3.8898   -1.9113 C.3       1 <0>        -0.1603
     20 C17        -0.8730   -2.4447   -1.4811 C.2       1 <0>         0.3632
     21 O1         -0.3459   -1.6285   -2.1983 O.2       1 <0>        -0.4424
     22 O2         -1.4883   -8.0819   -4.5946 O.3       1 <0>        -0.3053
     23 C18        -0.7686   -7.1359   -5.3878 C.3       1 <0>         0.0249
     24 O3         -2.9127   -9.7955   -2.9687 O.3       1 <0>        -0.3056
     25 C19        -3.6654  -10.6220   -2.0786 C.3       1 <0>         0.0256
     26 H3          1.0039    1.9031    0.0027 H         1 <0>         0.0538
     27 H4         -0.5459    1.8868   -0.8726 H         1 <0>         0.0533
     28 H5         -0.5289    1.8773    0.9072 H         1 <0>         0.0518
     29 H6          0.5123   -0.3556   -0.8948 H         1 <0>         0.0894
     30 H7          0.7568   -1.6008    1.2356 H         1 <0>         0.0524
     31 H8          1.7647   -0.1336    1.2338 H         1 <0>         0.0538
     32 H9          0.2319   -0.1594    2.1383 H         1 <0>         0.0541
     33 H10        -1.9156   -0.2570    0.9504 H         1 <0>         0.0707
     34 H11        -1.9862   -0.1019   -0.8214 H         1 <0>         0.0652
     35 H12        -3.2138   -2.4330    1.0095 H         1 <0>         0.0926
     36 H13        -3.4885   -2.0949   -0.7167 H         1 <0>         0.0421
     37 H14        -4.4851   -4.2792    1.0038 H         1 <0>         0.0865
     38 H15        -4.8671   -4.3721   -0.7350 H         1 <0>         0.0425
     39 H16        -3.3878   -6.4390    0.9473 H         1 <0>         0.0874
     40 H17        -4.9741   -6.6241    0.1642 H         1 <0>         0.0808
     41 H18        -3.9739   -8.6587   -0.8665 H         1 <0>         0.1367
     42 H19        -1.4340   -5.6027   -3.7711 H         1 <0>         0.1364
     43 H20        -0.3441   -4.5154   -1.3224 H         1 <0>         0.1104
     44 H21        -0.7716   -3.9838   -2.9697 H         1 <0>         0.0937
     45 H22        -1.4476   -6.3523   -5.7239 H         1 <0>         0.0547
     46 H23         0.0294   -6.6939   -4.7911 H         1 <0>         0.0553
     47 H24        -0.3386   -7.6399   -6.2533 H         1 <0>         0.1022
     48 H25        -3.2119  -10.5962   -1.0878 H         1 <0>         0.0556
     49 H26        -4.6895  -10.2536   -2.0192 H         1 <0>         0.0552
     50 H27        -3.6689  -11.6468   -2.4499 H         1 <0>         0.1016
@<TRIPOS>BOND
     1    1    2 1
     2    1   26 1
     3    1   27 1
     4    1   28 1
     5    2    3 1
     6    2    4 1
     7    2   29 1
     8    3   30 1
     9    3   31 1
    10    3   32 1
    11    4    5 1
    12    4   33 1
    13    4   34 1
    14    5    6 1
    15    5   20 1
    16    5    7 1
    17    7    8 1
    18    7   35 1
    19    7   36 1
    20    8   17 1
    21    8    9 1
    22    9   10 1
    23    9   37 1
    24    9   38 1
    25   10   11 1
    26   10   39 1
    27   10   40 1
    28   11   16 ar
    29   11   12 ar
    30   12   13 ar
    31   12   41 1
    32   13   14 ar
    33   13   24 1
    34   14   15 ar
    35   14   22 1
    36   15   16 ar
    37   15   42 1
    38   16   17 1
    39   17   18 1
    40   17   19 1
    41   19   20 1
    42   19   43 1
    43   19   44 1
    44   20   21 2
    45   22   23 1
    46   23   45 1
    47   23   46 1
    48   23   47 1
    49   24   25 1
    50   25   48 1
    51   25   49 1
    52   25   50 1
@<TRIPOS>MOLECULE
ZINC03875392
   50    52     0     0     0
SMALL
USER_CHARGES

@<TRIPOS>ATOM
      1 C1          0.7672   -0.3646   -1.1304 C.3       1 <0>        -0.1494
      2 C2         -0.0248   -0.0055    0.1285 C.3       1 <0>        -0.1045
      3 C3         -0.0769    1.5159    0.2815 C.3       1 <0>        -0.1464
      4 C4         -1.4477   -0.5552    0.0099 C.3       1 <0>        -0.0934
      5 C5         -1.4046   -2.0846    0.0033 C.3       1 <0>        -0.1342
      6 H1         -0.7412   -2.4304   -0.7894 H         1 <0>         0.1019
      7 C6         -2.8150   -2.6407   -0.2234 C.3       1 <0>         0.0632
      8 N1         -3.6643   -2.2993    0.9262 N.3       1 <0>        -0.5289
      9 C7         -5.0714   -2.6229    0.6475 C.3       1 <0>         0.0551
     10 C8         -5.9497   -1.9280    1.6878 C.3       1 <0>        -0.0732
     11 C9         -5.4446   -2.2406    3.0734 C.ar      1 <0>        -0.0600
     12 C10        -6.2957   -2.0338    4.1489 C.ar      1 <0>        -0.1743
     13 C11        -5.8729   -2.3052    5.4378 C.ar      1 <0>         0.1066
     14 C12        -4.5851   -2.7881    5.6526 C.ar      1 <0>         0.1007
     15 C13        -3.7410   -2.9929    4.5764 C.ar      1 <0>        -0.1682
     16 C14        -4.1696   -2.7200    3.2844 C.ar      1 <0>        -0.0741
     17 C15        -3.2114   -2.9658    2.1490 C.3       1 <0>         0.1413
     18 H2         -3.1361   -4.0380    1.9675 H         1 <0>         0.0569
     19 C16        -1.8252   -2.4356    2.5374 C.3       1 <0>        -0.1598
     20 C17        -0.9066   -2.5876    1.3422 C.2       1 <0>         0.3668
     21 O1          0.1849   -3.0924    1.4526 O.2       1 <0>        -0.4499
     22 O2         -4.1586   -3.0570    6.9156 O.3       1 <0>        -0.3053
     23 C18        -2.8249   -3.5499    7.0588 C.3       1 <0>         0.0249
     24 O3         -6.7106   -2.1008    6.4894 O.3       1 <0>        -0.3057
     25 C19        -8.0166   -1.6032    6.1914 C.3       1 <0>         0.0257
     26 H3          1.7809    0.0270   -1.0459 H         1 <0>         0.0539
     27 H4          0.8044   -1.4485   -1.2394 H         1 <0>         0.0560
     28 H5          0.2806    0.0718   -2.0026 H         1 <0>         0.0557
     29 H6          0.4619   -0.4419    1.0007 H         1 <0>         0.0648
     30 H7         -0.7140    1.7744    1.1273 H         1 <0>         0.0550
     31 H8          0.9291    1.8984    0.4541 H         1 <0>         0.0541
     32 H9         -0.4829    1.9588   -0.6279 H         1 <0>         0.0559
     33 H10        -2.0415   -0.2121    0.8571 H         1 <0>         0.0809
     34 H11        -1.8982   -0.2004   -0.9170 H         1 <0>         0.0750
     35 H12        -3.2365   -2.2047   -1.1291 H         1 <0>         0.0937
     36 H13        -2.7658   -3.7244   -0.3300 H         1 <0>         0.0419
     37 H14        -5.3370   -2.2707   -0.3492 H         1 <0>         0.0863
     38 H15        -5.2173   -3.7014    0.7076 H         1 <0>         0.0421
     39 H16        -5.9198   -0.8505    1.5258 H         1 <0>         0.0873
     40 H17        -6.9765   -2.2800    1.5885 H         1 <0>         0.0803
     41 H18        -7.2941   -1.6585    3.9791 H         1 <0>         0.1365
     42 H19        -2.7416   -3.3672    4.7422 H         1 <0>         0.1361
     43 H20        -1.8981   -1.3837    2.8135 H         1 <0>         0.1112
     44 H21        -1.4338   -3.0102    3.3769 H         1 <0>         0.0928
     45 H22        -2.7225   -4.4858    6.5096 H         1 <0>         0.0547
     46 H23        -2.1222   -2.8171    6.6621 H         1 <0>         0.0553
     47 H24        -2.6128   -3.7226    8.1139 H         1 <0>         0.1022
     48 H25        -7.9323   -0.6379    5.6922 H         1 <0>         0.0556
     49 H26        -8.5329   -2.3064    5.5379 H         1 <0>         0.0551
     50 H27        -8.5806   -1.4857    7.1167 H         1 <0>         0.1016
@<TRIPOS>BOND
     1    1    2 1
     2    1   26 1
     3    1   27 1
     4    1   28 1
     5    2    3 1
     6    2    4 1
     7    2   29 1
     8    3   30 1
     9    3   31 1
    10    3   32 1
    11    4    5 1
    12    4   33 1
    13    4   34 1
    14    5    6 1
    15    5   20 1
    16    5    7 1
    17    7    8 1
    18    7   35 1
    19    7   36 1
    20    8   17 1
    21    8    9 1
    22    9   10 1
    23    9   37 1
    24    9   38 1
    25   10   11 1
    26   10   39 1
    27   10   40 1
    28   11   16 ar
    29   11   12 ar
    30   12   13 ar
    31   12   41 1
    32   13   14 ar
    33   13   24 1
    34   14   15 ar
    35   14   22 1
    36   15   16 ar
    37   15   42 1
    38   16   17 1
    39   17   18 1
    40   17   19 1
    41   19   20 1
    42   19   43 1
    43   19   44 1
    44   20   21 2
    45   22   23 1
    46   23   45 1
    47   23   46 1
    48   23   47 1
    49   24   25 1
    50   25   48 1
    51   25   49 1
    52   25   50 1
@<TRIPOS>MOLECULE
ZINC16052277
   55    58     0     0     0
SMALL
USER_CHARGES

@<TRIPOS>ATOM
      1 C1         -0.2520    2.1148    0.9568 C.3       1 <0>        -0.1533
      2 C2         -0.2142    0.5928    0.8054 C.3       1 <0>        -0.0495
      3 H1         -1.2194    0.1918    0.9359 H         1 <0>         0.0934
      4 C3          0.2888    0.2405   -0.5696 C.ar      1 <0>        -0.0127
      5 C4          0.1577    1.1412   -1.6055 C.ar      1 <0>        -0.1434
      6 C5          0.6068    0.8151   -2.8745 C.ar      1 <0>        -0.0776
      7 C6          1.1888   -0.4137   -3.1175 C.ar      1 <0>        -0.1681
      8 C7          1.3338   -1.3294   -2.0857 C.ar      1 <0>         0.1604
      9 C8          0.8866   -0.9991   -0.8005 C.ar      1 <0>        -0.1829
     10 C9          1.0625   -1.9467    0.3181 C.2       1 <0>         0.4327
     11 O1          1.3625   -3.1077    0.1053 O.2       1 <0>        -0.4261
     12 C10         0.8754   -1.4782    1.6525 C.2       1 <0>        -0.2550
     13 C11         0.8515   -2.3703    2.6468 C.2       1 <0>         0.1807
     14 C12         0.6772   -2.0112    4.0978 C.3       1 <0>         0.1192
     15 C13         0.9402   -0.5160    4.2801 C.3       1 <0>        -0.0877
     16 H2          1.9952   -0.3310    4.0782 H         1 <0>         0.0857
     17 C14         0.1182    0.2675    3.2606 C.3       1 <0>         0.1180
     18 H3         -0.9197   -0.0640    3.2915 H         1 <0>         0.1134
     19 C15         0.7082    0.0014    1.8691 C.3       1 <0>        -0.0455
     20 H4          1.6829    0.4848    1.8028 H         1 <0>         0.0872
     21 O2          0.1877    1.6641    3.5553 O.3       1 <0>        -0.5351
     22 C16         0.6448   -0.0634    5.6966 C.3       1 <0>         0.0935
     23 H5          0.6805    1.0253    5.7346 H         1 <0>         0.0641
     24 C17        -0.7015   -0.5226    6.1704 C.2       1 <0>         0.3598
     25 C18        -1.3618   -1.5772    5.5908 C.2       1 <0>        -0.4996
     26 C19        -0.7689   -2.2824    4.4679 C.2       1 <0>         0.3840
     27 O3         -1.4356   -3.0653    3.8230 O.2       1 <0>        -0.5196
     28 C20        -2.6678   -2.0028    6.1187 C.2       1 <0>         0.5876
     29 O4         -3.2165   -1.3480    6.9846 O.2       1 <0>        -0.5646
     30 N1         -3.2560   -3.1182    5.6428 N.am      1 <0>        -0.8752
     31 O5         -1.2804    0.1189    7.1962 O.3       1 <0>        -0.5978
     32 N2          1.6739   -0.6050    6.5941 N.3       1 <0>        -0.5122
     33 C21         2.9882   -0.0165    6.3038 C.3       1 <0>         0.0258
     34 C22         1.3052   -0.4013    8.0015 C.3       1 <0>         0.0316
     35 O6          1.5566   -2.7872    4.9141 O.3       1 <0>        -0.4974
     36 O7          0.9918   -3.6731    2.3306 O.3       1 <0>        -0.4499
     37 O8          1.9046   -2.5377   -2.3204 O.3       1 <0>        -0.4793
     38 H6          0.7645    2.5076    0.9341 H         1 <0>         0.0548
     39 H7         -0.8270    2.5471    0.1379 H         1 <0>         0.0551
     40 H8         -0.7206    2.3740    1.9062 H         1 <0>         0.0928
     41 H9         -0.2971    2.1043   -1.4267 H         1 <0>         0.1361
     42 H10         0.5008    1.5267   -3.6799 H         1 <0>         0.1286
     43 H11         1.5314   -0.6615   -4.1112 H         1 <0>         0.1307
     44 H12         1.0890    2.0103    3.6093 H         1 <0>         0.3687
     45 H13        -2.7869   -3.6799    5.0062 H         1 <0>         0.3990
     46 H14        -4.1483   -3.3592    5.9370 H         1 <0>         0.3759
     47 H15         2.9593    1.0543    6.5051 H         1 <0>         0.0177
     48 H16         3.7434   -0.4847    6.9352 H         1 <0>         0.0646
     49 H17         3.2371   -0.1826    5.2557 H         1 <0>         0.0634
     50 H18         0.4193   -0.9922    8.2341 H         1 <0>         0.0805
     51 H19         2.1295   -0.7147    8.6421 H         1 <0>         0.0528
     52 H20         1.0931    0.6541    8.1724 H         1 <0>         0.0275
     53 H21         1.4654   -3.7422    4.7930 H         1 <0>         0.3680
     54 H22         1.7146   -4.1152    2.7966 H         1 <0>         0.3895
     55 H23         2.8639   -2.5496   -2.1998 H         1 <0>         0.3899
@<TRIPOS>BOND
     1    1    2 1
     2    1   38 1
     3    1   39 1
     4    1   40 1
     5    2    3 1
     6    2   19 1
     7    2    4 1
     8    4    9 ar
     9    4    5 ar
    10    5    6 ar
    11    5   41 1
    12    6    7 ar
    13    6   42 1
    14    7    8 ar
    15    7   43 1
    16    8    9 ar
    17    8   37 1
    18    9   10 1
    19   10   11 2
    20   10   12 1
    21   12   19 1
    22   12   13 2
    23   13   14 1
    24   13   36 1
    25   14   26 1
    26   14   15 1
    27   14   35 1
    28   15   16 1
    29   15   17 1
    30   15   22 1
    31   17   18 1
    32   17   19 1
    33   17   21 1
    34   19   20 1
    35   21   44 1
    36   22   23 1
    37   22   24 1
    38   22   32 1
    39   24   25 2
    40   24   31 1
    41   25   26 1
    42   25   28 1
    43   26   27 2
    44   28   29 2
    45   28   30 am
    46   30   45 1
    47   30   46 1
    48   32   33 1
    49   32   34 1
    50   33   47 1
    51   33   48 1
    52   33   49 1
    53   34   50 1
    54   34   51 1
    55   34   52 1
    56   35   53 1
    57   36   54 1
    58   37   55 1
@<TRIPOS>MOLECULE
ZINC38141396
   42    45     0     0     0
SMALL
USER_CHARGES

@<TRIPOS>ATOM
      1 C1         -0.0127    1.0858    0.0080 C.3       1 <0>        -0.1409
      2 C2         -0.7527    1.5927   -1.2315 C.3       1 <0>        -0.1350
      3 C3         -2.1775    1.0700   -1.2255 C.2       1 <0>         0.1476
      4 C4         -3.0964    1.6274   -0.1781 C.2       1 <0>         0.4636
      5 O1         -3.9359    0.9497    0.3837 O.2       1 <0>        -0.3927
      6 C5         -2.9049    3.0524    0.1173 C.2       1 <0>        -0.2751
      7 C6         -1.8202    3.7548   -0.3416 C.2       1 <0>         0.1948
      8 C7         -0.7989    3.1082   -1.2146 C.2       1 <0>         0.4133
      9 O2         -0.0371    3.7665   -1.8824 O.2       1 <0>        -0.4061
     10 N1         -1.8126    5.0336    0.1182 N.pl3     1 <0>        -0.6194
     11 C8         -1.0233    6.2561    0.3708 C.3       1 <0>         0.1484
     12 C9         -1.4053    6.6515    1.8190 C.3       1 <0>        -0.0540
     13 H1         -1.1520    7.6558    2.1588 H         1 <0>         0.1684
     14 C10        -2.7992    6.0199    2.0482 C.3       1 <0>        -0.0429
     15 H2         -3.5962    6.5443    2.5752 H         1 <0>         0.1698
     16 C11        -3.1376    5.3506    0.7078 C.3       1 <0>         0.3056
     17 C12        -3.7960    3.9780    0.8974 C.3       1 <0>        -0.0528
     18 H3         -4.8055    3.9763    0.4863 H         1 <0>         0.1188
     19 C13        -3.8143    3.5888    2.3770 C.3       1 <0>         0.1067
     20 O3         -4.4416    2.3135    2.5263 O.3       1 <0>        -0.3424
     21 C14        -4.5389    1.8229    3.7763 C.2       1 <0>         0.6503
     22 O4         -4.1032    2.4600    4.7147 O.2       1 <0>        -0.5751
     23 N2         -5.1197    0.6250    3.9867 N.am      1 <0>        -0.8241
     24 O5         -3.9051    6.2121   -0.1353 O.3       1 <0>        -0.3513
     25 C15        -4.1953    5.6596   -1.4208 C.3       1 <0>         0.0235
     26 N3         -1.5806    5.5674    2.7957 N.3       1 <0>        -0.5378
     27 N4         -2.5788    0.1896   -2.0784 N.2       1 <0>        -0.5942
     28 H4          0.0021   -0.0041    0.0020 H         1 <0>         0.0834
     29 H5          1.0099    1.4631    0.0003 H         1 <0>         0.0787
     30 H6         -0.5229    1.4373    0.9048 H         1 <0>         0.0716
     31 H7          0.0436    6.0440    0.3009 H         1 <0>         0.0973
     32 H8         -1.3043    7.0442   -0.3278 H         1 <0>         0.1076
     33 H9         -2.7920    3.5370    2.7517 H         1 <0>         0.0710
     34 H10        -4.3711    4.3360    2.9424 H         1 <0>         0.0819
     35 H11        -5.4675    0.1164    3.2375 H         1 <0>         0.4112
     36 H12        -5.1898    0.2715    4.8872 H         1 <0>         0.4252
     37 H13        -4.7641    4.7376   -1.3000 H         1 <0>         0.0533
     38 H14        -4.7803    6.3742   -1.9998 H         1 <0>         0.0997
     39 H15        -3.2629    5.4455   -1.9432 H         1 <0>         0.0447
     40 H16        -1.2231    4.6952    2.4358 H         1 <0>         0.3309
     41 H17        -1.9644   -0.1549   -2.7453 H         1 <0>         0.3526
     42 H18        -0.2400    1.2505   -2.1305 H         1 <0>         0.1240
@<TRIPOS>BOND
     1    1   28 1
     2    1   29 1
     3    1   30 1
     4    1    2 1
     5    2    3 1
     6    2    8 1
     7    2   42 1
     8    3   27 2
     9    3    4 1
    10    4    5 2
    11    4    6 1
    12    6   17 1
    13    6    7 2
    14    7    8 1
    15    7   10 1
    16    8    9 2
    17   10   16 1
    18   10   11 1
    19   11   12 1
    20   11   31 1
    21   11   32 1
    22   12   13 1
    23   12   26 1
    24   12   14 1
    25   14   15 1
    26   14   16 1
    27   14   26 1
    28   16   17 1
    29   16   24 1
    30   17   18 1
    31   17   19 1
    32   19   20 1
    33   19   33 1
    34   19   34 1
    35   20   21 1
    36   21   22 2
    37   21   23 am
    38   23   35 1
    39   23   36 1
    40   24   25 1
    41   25   37 1
    42   25   38 1
    43   25   39 1
    44   26   40 1
    45   27   41 1
@<TRIPOS>MOLECULE
ZINC14879985
   53    56     0     0     0
SMALL
USER_CHARGES

@<TRIPOS>ATOM
      1 C1         -0.4796    1.7773    0.0791 C.3       1 <0>        -0.0471
      2 N1         -0.5776    0.3218    0.2512 N.4       1 <0>        -0.3730
      3 C2          0.1546   -0.0788    1.4602 C.3       1 <0>        -0.0452
      4 C3         -1.9894   -0.0617    0.3843 C.3       1 <0>         0.0072
      5 H1         -2.4357    0.5002    1.2047 H         1 <0>         0.1504
      6 C4         -2.7172    0.2743   -0.8999 C.3       1 <0>        -0.1085
      7 H2         -2.4137    1.2827   -1.1814 H         1 <0>         0.0942
      8 C5         -4.2298    0.3136   -0.6816 C.3       1 <0>         0.1282
      9 H3         -4.6140   -0.7015   -0.5808 H         1 <0>         0.1153
     10 C6         -4.8656    0.9888   -1.8985 C.3       1 <0>         0.0201
     11 H4         -4.5241    2.0222   -1.9579 H         1 <0>         0.0577
     12 C7         -6.3701    0.9654   -1.7707 C.2       1 <0>        -0.0677
     13 C8         -6.9580    0.6865   -0.6136 C.2       1 <0>        -0.1917
     14 C9         -7.1649    1.2641   -2.9818 C.ar      1 <0>        -0.0079
     15 C10        -8.4221    1.8453   -2.9020 C.ar      1 <0>        -0.1360
     16 C11        -9.1253    2.1202   -4.0615 C.ar      1 <0>        -0.1028
     17 C12        -8.5853    1.8216   -5.2992 C.ar      1 <0>        -0.1648
     18 C13        -7.3316    1.2354   -5.4008 C.ar      1 <0>         0.1408
     19 C14        -6.6099    0.9447   -4.2392 C.ar      1 <0>        -0.1406
     20 C15        -5.2881    0.3005   -4.3017 C.2       1 <0>         0.4178
     21 C16        -4.4592    0.2561   -3.1499 C.2       1 <0>        -0.4903
     22 C17        -3.3272   -0.4563   -3.2052 C.2       1 <0>         0.2939
     23 O1         -3.0304   -1.0727   -4.3669 O.3       1 <0>        -0.5858
     24 C18        -2.3777   -0.6259   -2.0619 C.3       1 <0>         0.1359
     25 C19        -2.2859   -2.0725   -1.6840 C.2       1 <0>         0.3159
     26 C20        -2.1400   -2.4989   -0.3891 C.2       1 <0>        -0.5015
     27 C21        -2.0734   -1.5299    0.6909 C.2       1 <0>         0.3768
     28 O2         -2.1055   -1.9120    1.8425 O.2       1 <0>        -0.5251
     29 C22        -2.0376   -3.9374   -0.0963 C.2       1 <0>         0.5851
     30 O3         -1.9725   -4.7404   -1.0076 O.2       1 <0>        -0.5536
     31 N2         -2.0160   -4.3651    1.1816 N.am      1 <0>        -0.8761
     32 O4         -2.3498   -2.9932   -2.6573 O.3       1 <0>        -0.5129
     33 O5         -1.0848   -0.2453   -2.5370 O.3       1 <0>        -0.5818
     34 O6         -4.9082   -0.2029   -5.3440 O.2       1 <0>        -0.4680
     35 O7         -6.8098    0.9458   -6.6193 O.3       1 <0>        -0.4764
     36 O8         -4.5283    1.0623    0.4984 O.3       1 <0>        -0.5523
     37 H5          0.5693    2.0737    0.0817 H         1 <0>         0.1168
     38 H6         -0.9355    2.0626   -0.8690 H         1 <0>         0.1265
     39 H7         -1.0000    2.2758    0.8970 H         1 <0>         0.1147
     40 H8         -0.2771    0.4196    2.3282 H         1 <0>         0.1175
     41 H9          0.0819   -1.1588    1.5879 H         1 <0>         0.1246
     42 H10         1.2021    0.2058    1.3615 H         1 <0>         0.1142
     43 H11        -6.3631    0.3813    0.2345 H         1 <0>         0.1284
     44 H12        -8.0311    0.7647   -0.5204 H         1 <0>         0.0901
     45 H13        -8.8503    2.0817   -1.9391 H         1 <0>         0.1232
     46 H14       -10.1045    2.5715   -3.9994 H         1 <0>         0.1214
     47 H15        -9.1448    2.0465   -6.1951 H         1 <0>         0.1230
     48 H16        -2.1506   -3.7347    1.9064 H         1 <0>         0.4010
     49 H17        -1.8659   -5.3034    1.3765 H         1 <0>         0.3770
     50 H18        -6.2867    1.6626   -7.0036 H         1 <0>         0.3847
     51 H19        -4.2914    1.9981    0.4409 H         1 <0>         0.3672
     52 H20        -0.7726   -0.7674   -3.2886 H         1 <0>         0.4050
     53 H21        -0.1781   -0.1396   -0.5523 H         1 <0>         0.4343
@<TRIPOS>BOND
     1    1    2 1
     2    1   37 1
     3    1   38 1
     4    1   39 1
     5    2    3 1
     6    2    4 1
     7    2   53 1
     8    3   40 1
     9    3   41 1
    10    3   42 1
    11    4    5 1
    12    4   27 1
    13    4    6 1
    14    6    7 1
    15    6   24 1
    16    6    8 1
    17    8    9 1
    18    8   10 1
    19    8   36 1
    20   10   11 1
    21   10   21 1
    22   10   12 1
    23   12   13 2
    24   12   14 1
    25   13   43 1
    26   13   44 1
    27   14   19 ar
    28   14   15 ar
    29   15   16 ar
    30   15   45 1
    31   16   17 ar
    32   16   46 1
    33   17   18 ar
    34   17   47 1
    35   18   19 ar
    36   18   35 1
    37   19   20 1
    38   20   21 1
    39   20   34 2
    40   21   22 2
    41   22   23 1
    42   22   24 1
    43   24   25 1
    44   24   33 1
    45   25   26 2
    46   25   32 1
    47   26   27 1
    48   26   29 1
    49   27   28 2
    50   29   30 2
    51   29   31 am
    52   31   48 1
    53   31   49 1
    54   33   52 1
    55   35   50 1
    56   36   51 1
@<TRIPOS>MOLECULE
ZINC14879985
   52    55     0     0     0
SMALL
USER_CHARGES

@<TRIPOS>ATOM
      1 C1          0.6510   -0.3942   -1.1715 C.3       1 <0>         0.0301
      2 N1         -0.2308   -0.1128   -0.0308 N.3       1 <0>        -0.5097
      3 C2         -0.2590    1.3247    0.2707 C.3       1 <0>         0.0297
      4 C3         -1.5855   -0.6265   -0.2733 C.3       1 <0>         0.0687
      5 H1         -1.9619   -0.2122   -1.2086 H         1 <0>         0.0583
      6 C4         -1.5305   -2.1350   -0.3863 C.3       1 <0>        -0.0809
      7 H2         -0.6934   -2.3731   -1.0425 H         1 <0>         0.0750
      8 C5         -2.7888   -2.6832   -1.0597 C.3       1 <0>         0.1211
      9 H3         -3.6275   -2.6393   -0.3648 H         1 <0>         0.1038
     10 C6         -2.5191   -4.1369   -1.4536 C.3       1 <0>         0.0210
     11 H4         -1.7203   -4.1681   -2.1946 H         1 <0>         0.0500
     12 C7         -3.7688   -4.7504   -2.0385 C.2       1 <0>        -0.0652
     13 C8         -4.7918   -3.9956   -2.4205 C.2       1 <0>        -0.1994
     14 C9         -3.8117   -6.2230   -2.1698 C.ar      1 <0>        -0.0056
     15 C10        -4.5517   -6.8434   -3.1659 C.ar      1 <0>        -0.1363
     16 C11        -4.5524   -8.2238   -3.2605 C.ar      1 <0>        -0.1102
     17 C12        -3.8212   -8.9903   -2.3715 C.ar      1 <0>        -0.1686
     18 C13        -3.0785   -8.3897   -1.3647 C.ar      1 <0>         0.1347
     19 C14        -3.0716   -6.9963   -1.2503 C.ar      1 <0>        -0.1317
     20 C15        -2.3176   -6.3209   -0.1820 C.2       1 <0>         0.4102
     21 C16        -2.1015   -4.9187   -0.2361 C.2       1 <0>        -0.4921
     22 C17        -1.5339   -4.3192    0.8178 C.2       1 <0>         0.3006
     23 O1         -1.1787   -5.0930    1.8631 O.3       1 <0>        -0.5950
     24 C18        -1.2805   -2.8486    0.9192 C.3       1 <0>         0.1520
     25 C19        -2.0544   -2.2745    2.0662 C.2       1 <0>         0.3347
     26 C20        -2.6186   -1.0253    2.0364 C.2       1 <0>        -0.5122
     27 C21        -2.4833   -0.1960    0.8516 C.2       1 <0>         0.4188
     28 O2         -3.1147    0.8372    0.7672 O.2       1 <0>        -0.5649
     29 C22        -3.3492   -0.5208    3.2099 C.2       1 <0>         0.5852
     30 O3         -3.3590   -1.1634    4.2427 O.2       1 <0>        -0.5733
     31 N2         -4.0074    0.6533    3.1405 N.am      1 <0>        -0.8809
     32 O4         -2.2027   -3.0171    3.1733 O.3       1 <0>        -0.5645
     33 O5          0.1029   -2.6875    1.2390 O.3       1 <0>        -0.5407
     34 O6         -1.8846   -6.9672    0.7555 O.2       1 <0>        -0.4803
     35 O7         -2.3642   -9.1497   -0.4969 O.3       1 <0>        -0.4767
     36 O8         -3.0871   -1.9130   -2.2258 O.3       1 <0>        -0.5558
     37 H5          1.6393    0.0229   -0.9783 H         1 <0>         0.0593
     38 H6          0.7324   -1.4723   -1.3104 H         1 <0>         0.0744
     39 H7          0.2355    0.0578   -2.0721 H         1 <0>         0.0121
     40 H8         -0.7140    1.8616   -0.5617 H         1 <0>         0.0175
     41 H9         -0.8428    1.4948    1.1753 H         1 <0>         0.0719
     42 H10         0.7588    1.6842    0.4221 H         1 <0>         0.0559
     43 H11        -4.7116   -2.9192   -2.3850 H         1 <0>         0.1339
     44 H12        -5.7043   -4.4580   -2.7668 H         1 <0>         0.0835
     45 H13        -5.1249   -6.2516   -3.8641 H         1 <0>         0.1214
     46 H14        -5.1294   -8.7069   -4.0352 H         1 <0>         0.1172
     47 H15        -3.8284  -10.0665   -2.4614 H         1 <0>         0.1186
     48 H16        -4.0698    1.1250    2.2952 H         1 <0>         0.4006
     49 H17        -4.4188    1.0264    3.9357 H         1 <0>         0.3654
     50 H18        -1.4587   -9.3295   -0.7848 H         1 <0>         0.3823
     51 H19        -2.3568   -1.8561   -2.8570 H         1 <0>         0.3610
     52 H20         0.3842   -3.1749    2.0254 H         1 <0>         0.3751
@<TRIPOS>BOND
     1    1    2 1
     2    1   37 1
     3    1   38 1
     4    1   39 1
     5    2    3 1
     6    2    4 1
     7    3   40 1
     8    3   41 1
     9    3   42 1
    10    4    5 1
    11    4   27 1
    12    4    6 1
    13    6    7 1
    14    6   24 1
    15    6    8 1
    16    8    9 1
    17    8   10 1
    18    8   36 1
    19   10   11 1
    20   10   21 1
    21   10   12 1
    22   12   13 2
    23   12   14 1
    24   13   43 1
    25   13   44 1
    26   14   19 ar
    27   14   15 ar
    28   15   16 ar
    29   15   45 1
    30   16   17 ar
    31   16   46 1
    32   17   18 ar
    33   17   47 1
    34   18   19 ar
    35   18   35 1
    36   19   20 1
    37   20   21 1
    38   20   34 2
    39   21   22 2
    40   22   23 1
    41   22   24 1
    42   24   25 1
    43   24   33 1
    44   25   26 2
    45   25   32 1
    46   26   27 1
    47   26   29 1
    48   27   28 2
    49   29   30 2
    50   29   31 am
    51   31   48 1
    52   31   49 1
    53   33   52 1
    54   35   50 1
    55   36   51 1
@<TRIPOS>MOLECULE
ZINC19228902
   53    56     0     0     0
SMALL
USER_CHARGES

@<TRIPOS>ATOM
      1 C1          3.4438   -4.9771    0.0386 C.ar      1 <0>        -0.0780
      2 C2          4.3860   -4.5768    0.9671 C.ar      1 <0>        -0.1364
      3 C3          4.2788   -3.3360    1.5681 C.ar      1 <0>        -0.0588
      4 C4          3.2264   -2.4923    1.2424 C.ar      1 <0>        -0.1554
      5 C5          2.2729   -2.8934    0.3107 C.ar      1 <0>         0.1928
      6 C6          2.3927   -4.1424   -0.2900 C.ar      1 <0>        -0.1574
      7 N1          1.1946   -2.0826   -0.0342 N.pl3     1 <0>        -0.5615
      8 C7          1.1706   -0.6956    0.0863 C.ar      1 <0>         0.2095
      9 C8          0.3021    0.0330   -0.7201 C.ar      1 <0>        -0.1556
     10 C9          0.2494    1.4113   -0.6229 C.ar      1 <0>         0.0045
     11 C10         1.0609    2.0766    0.2781 C.ar      1 <0>        -0.1296
     12 C11         1.9290    1.3618    1.0829 C.ar      1 <0>        -0.0462
     13 C12         1.9886   -0.0212    0.9884 C.ar      1 <0>        -0.1523
     14 S1          3.1088   -0.9132    2.0136 S.3       1 <0>         0.0250
     15 Cl1        -0.8381    2.3093   -1.6352 Cl        1 <0>        -0.0578
     16 C13        -0.0043   -2.7379   -0.5628 C.3       1 <0>         0.1120
     17 C14         0.1007   -2.8418   -2.0857 C.3       1 <0>        -0.1450
     18 C15        -1.1514   -3.5261   -2.6377 C.3       1 <0>         0.0580
     19 N2         -1.0506   -3.6259   -4.0999 N.3       1 <0>        -0.5386
     20 C16        -1.0805   -2.2948   -4.7219 C.3       1 <0>         0.0552
     21 C17        -0.8935   -2.4371   -6.2343 C.3       1 <0>         0.0577
     22 N3         -1.9566   -3.2935   -6.7783 N.3       1 <0>        -0.5305
     23 C18        -1.9267   -4.6246   -6.1563 C.3       1 <0>         0.0543
     24 C19        -2.1137   -4.4823   -4.6439 C.3       1 <0>         0.0588
     25 C20        -1.8558   -3.3932   -8.2404 C.3       1 <0>         0.0540
     26 C21        -3.1079   -4.0776   -8.7925 C.3       1 <0>         0.0794
     27 O1         -4.2488   -3.2527   -8.5476 O.3       1 <0>        -0.5597
     28 H1          3.5317   -5.9437   -0.4349 H         1 <0>         0.1313
     29 H2          5.2050   -5.2326    1.2233 H         1 <0>         0.1322
     30 H3          5.0157   -3.0230    2.2930 H         1 <0>         0.1337
     31 H4          1.6605   -4.4613   -1.0170 H         1 <0>         0.1353
     32 H5         -0.3340   -0.4806   -1.4259 H         1 <0>         0.1424
     33 H6          1.0169    3.1531    0.3527 H         1 <0>         0.1429
     34 H7          2.5626    1.8814    1.7864 H         1 <0>         0.1438
     35 H8         -0.0907   -3.7369   -0.1356 H         1 <0>         0.0890
     36 H9         -0.8849   -2.1523   -0.2985 H         1 <0>         0.0854
     37 H10         0.1870   -1.8427   -2.5129 H         1 <0>         0.0726
     38 H11         0.9813   -3.4273   -2.3500 H         1 <0>         0.0824
     39 H12        -1.2377   -4.5252   -2.2105 H         1 <0>         0.0782
     40 H13        -2.0320   -2.9406   -2.3734 H         1 <0>         0.0387
     41 H14        -2.0397   -1.8193   -4.5172 H         1 <0>         0.0449
     42 H15        -0.2764   -1.6837   -4.3119 H         1 <0>         0.0802
     43 H16        -0.9444   -1.4534   -6.7011 H         1 <0>         0.0800
     44 H17         0.0774   -2.8878   -6.4398 H         1 <0>         0.0415
     45 H18        -2.7308   -5.2357   -6.5662 H         1 <0>         0.0801
     46 H19        -0.9675   -5.1001   -6.3609 H         1 <0>         0.0414
     47 H20        -2.0628   -5.4660   -4.1771 H         1 <0>         0.0795
     48 H21        -3.0846   -4.0316   -4.4383 H         1 <0>         0.0445
     49 H22        -1.7695   -2.3942   -8.6677 H         1 <0>         0.0832
     50 H23        -0.9752   -3.9788   -8.5047 H         1 <0>         0.0491
     51 H24        -2.9945   -4.2317   -9.8655 H         1 <0>         0.0488
     52 H25        -3.2431   -5.0403   -8.2994 H         1 <0>         0.0453
     53 H26        -5.0802   -3.6250   -8.8719 H         1 <0>         0.3753
@<TRIPOS>BOND
     1    1    6 ar
     2    1    2 ar
     3    1   28 1
     4    2    3 ar
     5    2   29 1
     6    3    4 ar
     7    3   30 1
     8    4   14 1
     9    4    5 ar
    10    5    6 ar
    11    5    7 1
    12    6   31 1
    13    7    8 1
    14    7   16 1
    15    8   13 ar
    16    8    9 ar
    17    9   10 ar
    18    9   32 1
    19   10   11 ar
    20   10   15 1
    21   11   12 ar
    22   11   33 1
    23   12   13 ar
    24   12   34 1
    25   13   14 1
    26   16   17 1
    27   16   35 1
    28   16   36 1
    29   17   18 1
    30   17   37 1
    31   17   38 1
    32   18   19 1
    33   18   39 1
    34   18   40 1
    35   19   24 1
    36   19   20 1
    37   20   21 1
    38   20   41 1
    39   20   42 1
    40   21   22 1
    41   21   43 1
    42   21   44 1
    43   22   23 1
    44   22   25 1
    45   23   24 1
    46   23   45 1
    47   23   46 1
    48   24   47 1
    49   24   48 1
    50   25   26 1
    51   25   49 1
    52   25   50 1
    53   26   27 1
    54   26   51 1
    55   26   52 1
    56   27   53 1
@<TRIPOS>MOLECULE
ZINC03137566
   28    29     0     0     0
SMALL
USER_CHARGES

@<TRIPOS>ATOM
      1 C1         -0.0187    1.5258    0.0104 C.3       1 <0>        -0.1571
      2 C2          0.0021   -0.0041    0.0020 C.3       1 <0>        -0.0973
      3 C3          0.7182   -0.4975   -1.2568 C.3       1 <0>        -0.1001
      4 C4          2.1347    0.0437   -1.2367 C.2       1 <0>         0.4959
      5 O1          2.9663   -0.2299   -0.2188 O.3       1 <0>        -0.6244
      6 N1          2.5204    0.7860   -2.2425 N.2       1 <0>        -0.6709
      7 C5          1.7192    1.0789   -3.2721 C.2       1 <0>         0.6713
      8 N2          0.4540    0.6595   -3.3989 N.am      1 <0>        -0.6997
      9 C6         -0.1267   -0.1198   -2.4596 C.2       1 <0>         0.5496
     10 O2         -1.2722   -0.5003   -2.5729 O.2       1 <0>        -0.5136
     11 O3          2.1729    1.7779   -4.1584 O.2       1 <0>        -0.5727
     12 C7          0.7898   -2.0014   -1.1927 C.ar      1 <0>        -0.0385
     13 C8          0.2469   -2.6739   -0.1138 C.ar      1 <0>        -0.1043
     14 C9          0.3126   -4.0534   -0.0550 C.ar      1 <0>        -0.1205
     15 C10         0.9207   -4.7605   -1.0753 C.ar      1 <0>        -0.1271
     16 C11         1.4628   -4.0881   -2.1546 C.ar      1 <0>        -0.1165
     17 C12         1.3934   -2.7089   -2.2155 C.ar      1 <0>        -0.1106
     18 H1          1.0039    1.9031    0.0027 H         1 <0>         0.0655
     19 H2         -0.5459    1.8868   -0.8726 H         1 <0>         0.0463
     20 H3         -0.5289    1.8773    0.9072 H         1 <0>         0.0609
     21 H4          0.5293   -0.3651    0.8851 H         1 <0>         0.0887
     22 H5         -1.0205   -0.3814    0.0098 H         1 <0>         0.0737
     23 H6         -0.0566    0.9207   -4.1811 H         1 <0>         0.3993
     24 H7         -0.2282   -2.1214    0.6834 H         1 <0>         0.1284
     25 H8         -0.1109   -4.5787    0.7883 H         1 <0>         0.1209
     26 H9          0.9727   -5.8383   -1.0290 H         1 <0>         0.1186
     27 H10         1.9382   -4.6406   -2.9516 H         1 <0>         0.1202
     28 H11         1.8136   -2.1838   -3.0605 H         1 <0>         0.1140
@<TRIPOS>BOND
     1    1    2 1
     2    1   18 1
     3    1   19 1
     4    1   20 1
     5    2   21 1
     6    2   22 1
     7    2    3 1
     8    3    4 1
     9    3   12 1
    10    3    9 1
    11    4    5 1
    12    4    6 2
    13    6    7 1
    14    7    8 am
    15    7   11 2
    16    8    9 am
    17    8   23 1
    18    9   10 2
    19   12   17 ar
    20   12   13 ar
    21   13   14 ar
    22   13   24 1
    23   14   15 ar
    24   14   25 1
    25   15   16 ar
    26   15   26 1
    27   16   17 ar
    28   16   27 1
    29   17   28 1
@<TRIPOS>MOLECULE
ZINC18202350
   56    59     0     0     0
SMALL
USER_CHARGES

@<TRIPOS>ATOM
      1 C1         -0.6345    1.2209   -0.2260 C.3       1 <0>        -0.1908
      2 C2         -0.5429   -0.3054   -0.1733 C.3       1 <0>         0.1840
      3 C3         -0.0675   -0.8232   -1.5050 C.ar      1 <0>        -0.0836
      4 C4         -0.2515   -0.0809   -2.6504 C.ar      1 <0>        -0.1376
      5 C5          0.1753   -0.5720   -3.8742 C.ar      1 <0>        -0.1124
      6 C6          0.7876   -1.8073   -3.9599 C.ar      1 <0>        -0.1589
      7 C7          0.9867   -2.5658   -2.8158 C.ar      1 <0>         0.1356
      8 C8          0.5615   -2.0692   -1.5761 C.ar      1 <0>        -0.0865
      9 C9          0.7897   -2.8344   -0.3415 C.2       1 <0>         0.3414
     10 O1          1.0887   -4.1503   -0.4020 O.3       1 <0>        -0.5889
     11 C10         0.6964   -2.1969    0.8816 C.2       1 <0>        -0.4876
     12 C11         0.8448   -2.9472    2.0434 C.2       1 <0>         0.3797
     13 C12         0.7872   -2.3620    3.4230 C.3       1 <0>         0.0974
     14 C13         0.7816   -0.8517    3.3853 C.3       1 <0>        -0.1054
     15 H1          1.7888   -0.5306    3.1195 H         1 <0>         0.0934
     16 C14        -0.1579   -0.3436    2.2927 C.3       1 <0>         0.1308
     17 H2         -1.1374   -0.8077    2.4077 H         1 <0>         0.1251
     18 C15         0.4308   -0.7163    0.9287 C.3       1 <0>         0.0054
     19 H3          1.3698   -0.1785    0.7974 H         1 <0>         0.0527
     20 O2         -0.2853    1.0762    2.3918 O.3       1 <0>        -0.5503
     21 C16         0.4407   -0.2104    4.7161 C.3       1 <0>         0.0032
     22 H4          0.2952    0.8600    4.5703 H         1 <0>         0.1497
     23 C17        -0.8111   -0.8030    5.2983 C.2       1 <0>         0.3819
     24 O3         -1.5526   -0.1188    5.9730 O.2       1 <0>        -0.5209
     25 C18        -1.1322   -2.2061    5.0486 C.2       1 <0>        -0.4987
     26 C19        -0.3783   -2.9348    4.1695 C.2       1 <0>         0.3181
     27 O4         -0.7140   -4.2149    3.9516 O.3       1 <0>        -0.5248
     28 C20        -2.2588   -2.8385    5.7532 C.2       1 <0>         0.5855
     29 O5         -2.5938   -3.9729    5.4697 O.2       1 <0>        -0.5507
     30 N1         -2.9195   -2.1607    6.7127 N.am      1 <0>        -0.8767
     31 N2          1.5531   -0.4221    5.6519 N.4       1 <0>        -0.3725
     32 C21         2.7387    0.3026    5.1753 C.3       1 <0>        -0.0461
     33 C22         1.1762    0.0762    6.9814 C.3       1 <0>        -0.0458
     34 O6          1.9768   -2.7563    4.1095 O.3       1 <0>        -0.5794
     35 O7          1.0319   -4.1436    1.9344 O.2       1 <0>        -0.4692
     36 O8          1.5873   -3.7797   -2.8963 O.3       1 <0>        -0.4707
     37 O9         -1.8343   -0.8480    0.1092 O.3       1 <0>        -0.5334
     38 H5          0.3657    1.6416   -0.3302 H         1 <0>         0.0575
     39 H6         -1.2447    1.5191   -1.0786 H         1 <0>         0.0514
     40 H7         -1.0897    1.5895    0.6932 H         1 <0>         0.0968
     41 H8         -0.7296    0.8859   -2.5950 H         1 <0>         0.1246
     42 H9          0.0282    0.0160   -4.7681 H         1 <0>         0.1195
     43 H10         1.1121   -2.1828   -4.9191 H         1 <0>         0.1227
     44 H11         0.5353    1.5578    2.2188 H         1 <0>         0.3621
     45 H12        -2.6986   -1.2331    6.8908 H         1 <0>         0.3989
     46 H13        -3.6158   -2.6005    7.2252 H         1 <0>         0.3782
     47 H14         2.5383    1.3740    5.1862 H         1 <0>         0.1140
     48 H15         3.5844    0.0846    5.8275 H         1 <0>         0.1167
     49 H16         2.9730   -0.0129    4.1587 H         1 <0>         0.1251
     50 H17         0.2965   -0.4615    7.3350 H         1 <0>         0.1238
     51 H18         2.0016   -0.0809    7.6758 H         1 <0>         0.1142
     52 H19         0.9508    1.1409    6.9199 H         1 <0>         0.1177
     53 H20         2.0845   -3.7138    4.1916 H         1 <0>         0.4024
     54 H21         2.5493   -3.7495   -2.8035 H         1 <0>         0.3827
     55 H22        -2.5074   -0.6240   -0.5480 H         1 <0>         0.3649
     56 H23         1.7618   -1.4077    5.7089 H         1 <0>         0.4337
@<TRIPOS>BOND
     1    1    2 1
     2    1   38 1
     3    1   39 1
     4    1   40 1
     5    2   18 1
     6    2    3 1
     7    2   37 1
     8    3    8 ar
     9    3    4 ar
    10    4    5 ar
    11    4   41 1
    12    5    6 ar
    13    5   42 1
    14    6    7 ar
    15    6   43 1
    16    7    8 ar
    17    7   36 1
    18    8    9 1
    19    9   10 1
    20    9   11 2
    21   11   18 1
    22   11   12 1
    23   12   13 1
    24   12   35 2
    25   13   26 1
    26   13   14 1
    27   13   34 1
    28   14   15 1
    29   14   16 1
    30   14   21 1
    31   16   17 1
    32   16   18 1
    33   16   20 1
    34   18   19 1
    35   20   44 1
    36   21   22 1
    37   21   23 1
    38   21   31 1
    39   23   24 2
    40   23   25 1
    41   25   26 2
    42   25   28 1
    43   26   27 1
    44   28   29 2
    45   28   30 am
    46   30   45 1
    47   30   46 1
    48   31   32 1
    49   31   33 1
    50   31   56 1
    51   32   47 1
    52   32   48 1
    53   32   49 1
    54   33   50 1
    55   33   51 1
    56   33   52 1
    57   34   53 1
    58   36   54 1
    59   37   55 1
@<TRIPOS>MOLECULE
ZINC08551106
   51    53     0     0     0
SMALL
USER_CHARGES

@<TRIPOS>ATOM
      1 C1         -0.0184    1.5028    0.0103 C.3       1 <0>        -0.1172
      2 C2          0.0021   -0.0041    0.0020 C.ar      1 <0>        -0.1092
      3 C3          0.0055   -0.6709   -1.1857 C.ar      1 <0>        -0.0116
      4 C4          0.0245   -2.0794   -1.2010 C.ar      1 <0>         0.0141
      5 C5          0.0399   -2.7830    0.0248 C.ar      1 <0>         0.1923
      6 C6          0.0360   -2.0753    1.2236 C.ar      1 <0>        -0.1621
      7 C7          0.0229   -0.6981    1.2072 C.ar      1 <0>         0.0129
      8 C8          0.0249    0.0638    2.5074 C.3       1 <0>        -0.1324
      9 N1          0.0577   -4.1618    0.0359 N.pl3     1 <0>        -0.4333
     10 C9          0.0606   -4.8214   -1.1563 C.2       1 <0>         0.4457
     11 N2          0.0765   -6.1417   -1.2331 N.2       1 <0>        -0.5954
     12 C10         0.0788   -6.7708   -2.4056 C.2       1 <0>         0.6826
     13 O1          0.0937   -7.9892   -2.4003 O.2       1 <0>        -0.5051
     14 N3          0.0651   -6.1474   -3.5924 N.am      1 <0>        -0.6818
     15 H1          0.0672   -6.6747   -4.4065 H         1 <0>         0.4264
     16 C11         0.0480   -4.7969   -3.6768 C.2       1 <0>         0.5881
     17 O2          0.0361   -4.2291   -4.7517 O.2       1 <0>        -0.4635
     18 C12         0.0451   -4.0410   -2.4046 C.2       1 <0>         0.0235
     19 N4          0.0273   -2.7330   -2.3704 N.2       1 <0>        -0.2994
     20 C13         0.0735   -4.9006    1.3009 C.3       1 <0>         0.0622
     21 C14        -1.3633   -5.1763    1.7485 C.3       1 <0>         0.0677
     22 H2         -1.8734   -5.7681    0.9885 H         1 <0>         0.1294
     23 C15        -1.3467   -5.9479    3.0696 C.3       1 <0>         0.0477
     24 H3         -0.9006   -6.9297    2.9114 H         1 <0>         0.1227
     25 C16        -2.7792   -6.1150    3.5806 C.3       1 <0>         0.0835
     26 H4         -3.2253   -5.1331    3.7389 H         1 <0>         0.1114
     27 C17        -2.7626   -6.8865    4.9017 C.3       1 <0>         0.1082
     28 O3         -4.0861   -6.9418    5.4377 O.3       1 <0>        -0.7522
     29 P1         -4.4406   -7.6795    6.8241 P.3       1 <0>         2.2113
     30 O4         -3.5537   -7.1083    7.9529 O.2       1 <0>        -1.1088
     31 O5         -5.9907   -7.4324    7.1825 O.3       1 <0>        -0.8970
     32 O6         -4.1803   -9.1958    6.6820 O.3       1 <0>        -1.1068
     33 O7         -3.5476   -6.8376    2.6166 O.3       1 <0>        -0.5425
     34 O8         -0.5783   -5.2252    4.0337 O.3       1 <0>        -0.5442
     35 O9         -2.0520   -3.9373    1.9291 O.3       1 <0>        -0.5401
     36 H5          1.0042    1.8801    0.0026 H         1 <0>         0.0770
     37 H6         -0.5455    1.8639   -0.8728 H         1 <0>         0.0736
     38 H7         -0.5286    1.8543    0.9071 H         1 <0>         0.0763
     39 H8         -0.0067   -0.1204   -2.1147 H         1 <0>         0.1527
     40 H9          0.0477   -2.6050    2.1647 H         1 <0>         0.1446
     41 H10        -1.0022    0.2336    2.8306 H         1 <0>         0.0902
     42 H11         0.5538   -0.5132    3.2659 H         1 <0>         0.0798
     43 H12         0.5244    1.0223    2.3661 H         1 <0>         0.0820
     44 H13         0.5989   -5.8456    1.1631 H         1 <0>         0.1308
     45 H14         0.5836   -4.3087    2.0609 H         1 <0>         0.1136
     46 H15        -2.3989   -7.8991    4.7266 H         1 <0>         0.0549
     47 H16        -2.1049   -6.3816    5.6092 H         1 <0>         0.0698
     48 H17        -3.2076   -7.7226    2.4259 H         1 <0>         0.3747
     49 H18        -0.9183   -4.3403    4.2243 H         1 <0>         0.3733
     50 H19        -1.6526   -3.3583    2.5927 H         1 <0>         0.3648
     51 H20        -6.2749   -7.8493    8.0074 H         1 <0>         0.4147
@<TRIPOS>BOND
     1    1    2 1
     2    1   36 1
     3    1   37 1
     4    1   38 1
     5    2    7 ar
     6    2    3 ar
     7    3    4 ar
     8    3   39 1
     9    4   19 1
    10    4    5 ar
    11    5    6 ar
    12    5    9 1
    13    6    7 ar
    14    6   40 1
    15    7    8 1
    16    8   41 1
    17    8   42 1
    18    8   43 1
    19    9   10 1
    20    9   20 1
    21   10   18 1
    22   10   11 2
    23   11   12 1
    24   12   13 2
    25   12   14 am
    26   14   15 1
    27   14   16 am
    28   16   17 2
    29   16   18 1
    30   18   19 2
    31   20   21 1
    32   20   44 1
    33   20   45 1
    34   21   22 1
    35   21   23 1
    36   21   35 1
    37   23   24 1
    38   23   25 1
    39   23   34 1
    40   25   26 1
    41   25   27 1
    42   25   33 1
    43   27   28 1
    44   27   46 1
    45   27   47 1
    46   28   29 1
    47   29   30 2
    48   29   31 1
    49   29   32 1
    50   31   51 1
    51   33   48 1
    52   34   49 1
    53   35   50 1
@<TRIPOS>MOLECULE
ZINC03782818
   52    56     0     0     0
SMALL
USER_CHARGES

@<TRIPOS>ATOM
      1 C1          0.0895   -5.1806   -0.3315 C.3       1 <0>        -0.1561
      2 C2          0.1330   -3.6520   -0.2848 C.3       1 <0>         0.0431
      3 O1          0.3156   -3.1400   -1.6063 O.3       1 <0>        -0.2529
      4 C3          0.3760   -1.7953   -1.7411 C.cat     1 <0>         0.5549
      5 N1          0.2859   -0.9373   -0.7589 N.pl3     1 <0>        -0.5380
      6 C4          0.3865    0.3269   -1.2500 C.ar      1 <0>         0.0428
      7 C5          0.3563    1.5910   -0.6579 C.ar      1 <0>        -0.1004
      8 C6          0.4862    2.7237   -1.4351 C.ar      1 <0>        -0.0886
      9 C7          0.6472    2.6260   -2.8039 C.ar      1 <0>        -0.0626
     10 C8          0.6807    1.3733   -3.4209 C.ar      1 <0>        -0.0796
     11 C9          0.5501    0.2157   -2.6400 C.ar      1 <0>         0.1123
     12 N2          0.5458   -1.1324   -2.9221 N.pl3     1 <0>        -0.3864
     13 C10         0.6925   -1.7423   -4.2461 C.3       1 <0>         0.1264
     14 C11         2.1231   -2.1719   -4.4455 C.ar      1 <0>        -0.0673
     15 C12         3.1417   -1.4986   -3.7952 C.ar      1 <0>        -0.1124
     16 C13         4.4536   -1.8875   -3.9739 C.ar      1 <0>        -0.1013
     17 C14         4.7516   -2.9612   -4.8119 C.ar      1 <0>        -0.0485
     18 C15         3.7208   -3.6359   -5.4646 C.ar      1 <0>         0.0142
     19 C16         2.4122   -3.2416   -5.2737 C.ar      1 <0>        -0.1183
     20 C17         6.1587   -3.3834   -5.0084 C.ar      1 <0>        -0.0348
     21 C18         7.1331   -2.4432   -5.3319 C.ar      1 <0>        -0.1093
     22 C19         8.4423   -2.8406   -5.5141 C.ar      1 <0>        -0.1346
     23 C20         8.7960   -4.1725   -5.3770 C.ar      1 <0>        -0.1237
     24 C21         7.8438   -5.1182   -5.0567 C.ar      1 <0>        -0.1050
     25 C22         6.5180   -4.7340   -4.8635 C.ar      1 <0>         0.0486
     26 C23         5.4946   -5.7426   -4.5146 C.2       1 <0>         0.0745
     27 N3          4.1937   -5.5236   -4.3126 N.2       1 <0>        -0.3488
     28 N4          3.6493   -6.6577   -4.0308 N.2       1 <0>        -0.1955
     29 N5          4.5498   -7.5771   -4.0472 N.2       1 <0>        -0.1947
     30 N6          5.6889   -7.0521   -4.3454 N.2       1 <0>        -0.3664
     31 C24         0.8512    1.2690   -4.8788 C.2       1 <0>         0.5106
     32 O2          0.3623    2.1159   -5.6140 O.co2     1 <0>        -0.6575
     33 O3          1.4820    0.3354   -5.3557 O.co2     1 <0>        -0.6401
     34 H1         -0.7389   -5.5014   -0.9632 H         1 <0>         0.0782
     35 H2          1.0262   -5.5584   -0.7413 H         1 <0>         0.0871
     36 H3         -0.0498   -5.5712    0.6765 H         1 <0>         0.0948
     37 H4         -0.8038   -3.2742    0.1250 H         1 <0>         0.0803
     38 H5          0.9614   -3.3312    0.3469 H         1 <0>         0.0822
     39 H6          0.2307    1.6824    0.4109 H         1 <0>         0.1397
     40 H7          0.4613    3.6973   -0.9684 H         1 <0>         0.1451
     41 H8          0.7472    3.5217   -3.3991 H         1 <0>         0.1508
     42 H9          0.0385   -2.6111   -4.3204 H         1 <0>         0.0967
     43 H10         0.4209   -1.0165   -5.0126 H         1 <0>         0.1788
     44 H11         2.9097   -0.6668   -3.1466 H         1 <0>         0.0960
     45 H12         5.2480   -1.3609   -3.4660 H         1 <0>         0.1084
     46 H13         3.9457   -4.4684   -6.1149 H         1 <0>         0.1140
     47 H14         1.6126   -3.7663   -5.7753 H         1 <0>         0.1129
     48 H15         6.8645   -1.4028   -5.4408 H         1 <0>         0.1212
     49 H16         9.1954   -2.1084   -5.7653 H         1 <0>         0.1166
     50 H17         9.8233   -4.4727   -5.5221 H         1 <0>         0.1173
     51 H18         8.1264   -6.1553   -4.9517 H         1 <0>         0.1276
     52 H19         0.1656   -1.1668    0.1759 H         1 <0>         0.4474
@<TRIPOS>BOND
     1    1    2 1
     2    1   34 1
     3    1   35 1
     4    1   36 1
     5    2    3 1
     6    2   37 1
     7    2   38 1
     8    3    4 1
     9    4   12 1
    10    4    5 2
    11    5    6 1
    12    5   52 1
    13    6   11 ar
    14    6    7 ar
    15    7    8 ar
    16    7   39 1
    17    8    9 ar
    18    8   40 1
    19    9   10 ar
    20    9   41 1
    21   10   11 ar
    22   10   31 1
    23   11   12 1
    24   12   13 1
    25   13   14 1
    26   13   42 1
    27   13   43 1
    28   14   19 ar
    29   14   15 ar
    30   15   16 ar
    31   15   44 1
    32   16   17 ar
    33   16   45 1
    34   17   18 ar
    35   17   20 1
    36   18   19 ar
    37   18   46 1
    38   19   47 1
    39   20   25 ar
    40   20   21 ar
    41   21   22 ar
    42   21   48 1
    43   22   23 ar
    44   22   49 1
    45   23   24 ar
    46   23   50 1
    47   24   25 ar
    48   24   51 1
    49   25   26 1
    50   26   30 2
    51   26   27 1
    52   27   28 1
    53   28   29 2
    54   29   30 1
    55   31   32 2
    56   31   33 1
@<TRIPOS>MOLECULE
ZINC18098320
   64    65     0     0     0
SMALL
USER_CHARGES

@<TRIPOS>ATOM
      1 C1          0.8629    0.6056    0.4827 C.ar      1 <0>        -0.1209
      2 C2          2.1440    0.8365    0.9395 C.ar      1 <0>        -0.0872
      3 C3          2.6933    0.0183    1.9120 C.ar      1 <0>        -0.0580
      4 C4          1.9616   -1.0356    2.4324 C.ar      1 <0>        -0.0854
      5 C5          0.6793   -1.2765    1.9842 C.ar      1 <0>        -0.1557
      6 C6          0.1200   -0.4554    1.0035 C.ar      1 <0>         0.1349
      7 N1         -1.1532   -0.6896    0.5542 N.2       1 <0>        -0.5898
      8 C7         -1.4359   -1.8146   -0.0586 C.2       1 <0>         0.6519
      9 N2         -0.4295   -2.7024   -0.3671 N.pl3     1 <0>        -0.6693
     10 C8         -0.7380   -3.9367   -0.9000 C.2       1 <0>         0.5971
     11 N3          0.2139   -4.7250   -1.3111 N.2       1 <0>        -0.5944
     12 C9         -0.1167   -5.9879   -1.9760 C.3       1 <0>         0.0664
     13 C10         0.3338   -5.9281   -3.4370 C.3       1 <0>        -0.1130
     14 C11        -0.0115   -7.2470   -4.1315 C.3       1 <0>        -0.1165
     15 C12         0.4391   -7.1873   -5.5924 C.3       1 <0>        -0.1140
     16 C13         0.0938   -8.5061   -6.2869 C.3       1 <0>        -0.1288
     17 C14         0.5443   -8.4464   -7.7479 C.3       1 <0>         0.1404
     18 N4          0.2137   -9.7092   -8.4129 N.pl3     1 <0>        -0.7036
     19 C15         0.5254   -9.8896   -9.7396 C.2       1 <0>         0.6392
     20 N5          1.1829   -8.9689  -10.3851 N.2       1 <0>        -0.8029
     21 N6          0.1419  -11.0455  -10.3871 N.pl3     1 <0>        -0.6772
     22 C16        -0.6433  -11.9711   -9.7366 C.2       1 <0>         0.6544
     23 N7         -1.0720  -11.7287   -8.5207 N.2       1 <0>        -0.6184
     24 C17        -1.8531  -12.6498   -7.8733 C.ar      1 <0>         0.1418
     25 C18        -3.0415  -13.0940   -8.4557 C.ar      1 <0>        -0.1513
     26 C19        -3.8237  -14.0214   -7.7990 C.ar      1 <0>        -0.0901
     27 C20        -3.4321  -14.5115   -6.5647 C.ar      1 <0>        -0.0555
     28 C21        -2.2546  -14.0749   -5.9818 C.ar      1 <0>        -0.0893
     29 C22        -1.4609  -13.1521   -6.6313 C.ar      1 <0>        -0.1167
     30 Cl1        -4.4221  -15.6779   -5.7442 Cl        1 <0>        -0.0718
     31 N8         -0.9773  -13.1471  -10.3603 N.pl3     1 <0>        -0.8783
     32 N9         -2.0502   -4.3349   -0.9973 N.pl3     1 <0>        -0.9140
     33 N10        -2.7347   -2.1066   -0.3923 N.pl3     1 <0>        -0.8468
     34 Cl2         4.3065    0.3147    2.4808 Cl        1 <0>        -0.0730
     35 H1          0.4340    1.2470   -0.2729 H         1 <0>         0.1336
     36 H2          2.7197    1.6570    0.5374 H         1 <0>         0.1350
     37 H3          2.3956   -1.6705    3.1906 H         1 <0>         0.1328
     38 H4          0.1096   -2.0991    2.3906 H         1 <0>         0.1264
     39 H5          0.3935   -6.8085   -1.4717 H         1 <0>         0.0772
     40 H6         -1.1939   -6.1493   -1.9343 H         1 <0>         0.0454
     41 H7         -0.1764   -5.1075   -3.9413 H         1 <0>         0.0568
     42 H8          1.4110   -5.7667   -3.4787 H         1 <0>         0.0706
     43 H9          0.4988   -8.0676   -3.6272 H         1 <0>         0.0639
     44 H10        -1.0886   -7.4085   -4.0897 H         1 <0>         0.0607
     45 H11        -0.0712   -6.3666   -6.0967 H         1 <0>         0.0640
     46 H12         1.5162   -7.0258   -5.6342 H         1 <0>         0.0663
     47 H13         0.6040   -9.3268   -5.7826 H         1 <0>         0.0656
     48 H14        -0.9834   -8.6676   -6.2452 H         1 <0>         0.0665
     49 H15         0.0341   -7.6258   -8.2522 H         1 <0>         0.0593
     50 H16         1.6215   -8.2849   -7.7896 H         1 <0>         0.0619
     51 H17        -0.2252  -10.4181   -7.9170 H         1 <0>         0.4257
     52 H18         1.3394   -9.0626  -11.3378 H         1 <0>         0.3382
     53 H19         0.4252  -11.2065  -11.3008 H         1 <0>         0.4230
     54 H20        -3.3481  -12.7121   -9.4183 H         1 <0>         0.1285
     55 H21        -4.7434  -14.3655   -8.2484 H         1 <0>         0.1322
     56 H22        -1.9547  -14.4607   -5.0187 H         1 <0>         0.1353
     57 H23        -0.5402  -12.8159   -6.1778 H         1 <0>         0.1339
     58 H24        -1.2181  -13.9246   -9.8327 H         1 <0>         0.4184
     59 H25        -0.9725  -13.2008  -11.3288 H         1 <0>         0.4038
     60 H26        -2.4047   -4.6330   -1.8495 H         1 <0>         0.4065
     61 H27        -2.6216   -4.3176   -0.2136 H         1 <0>         0.4044
     62 H28        -3.4574   -1.8512    0.2022 H         1 <0>         0.4159
     63 H29        -2.9301   -2.5683   -1.2227 H         1 <0>         0.4129
     64 H30         0.4964   -2.4598   -0.2097 H         1 <0>         0.4312
@<TRIPOS>BOND
     1    1    6 ar
     2    1    2 ar
     3    1   35 1
     4    2    3 ar
     5    2   36 1
     6    3    4 ar
     7    3   34 1
     8    4    5 ar
     9    4   37 1
    10    5    6 ar
    11    5   38 1
    12    6    7 1
    13    7    8 2
    14    8    9 1
    15    8   33 1
    16    9   10 1
    17    9   64 1
    18   10   11 2
    19   10   32 1
    20   11   12 1
    21   12   13 1
    22   12   39 1
    23   12   40 1
    24   13   14 1
    25   13   41 1
    26   13   42 1
    27   14   15 1
    28   14   43 1
    29   14   44 1
    30   15   16 1
    31   15   45 1
    32   15   46 1
    33   16   17 1
    34   16   47 1
    35   16   48 1
    36   17   18 1
    37   17   49 1
    38   17   50 1
    39   18   19 1
    40   18   51 1
    41   19   20 2
    42   19   21 1
    43   20   52 1
    44   21   22 1
    45   21   53 1
    46   22   23 2
    47   22   31 1
    48   23   24 1
    49   24   29 ar
    50   24   25 ar
    51   25   26 ar
    52   25   54 1
    53   26   27 ar
    54   26   55 1
    55   27   28 ar
    56   27   30 1
    57   28   29 ar
    58   28   56 1
    59   29   57 1
    60   31   58 1
    61   31   59 1
    62   32   60 1
    63   32   61 1
    64   33   62 1
    65   33   63 1
@<TRIPOS>MOLECULE
ZINC18098320
   64    65     0     0     0
SMALL
NO_CHARGES

@<TRIPOS>ATOM
      1 C1         -3.9038    6.9848   -7.3081 C.ar      1 <0>        -0.1245
      2 C2         -3.2480    7.5277   -8.3937 C.ar      1 <0>        -0.0867
      3 C3         -1.8641    7.5427   -8.4336 C.ar      1 <0>        -0.0589
      4 C4         -1.1298    7.0142   -7.3855 C.ar      1 <0>        -0.0863
      5 C5         -1.7740    6.4690   -6.2942 C.ar      1 <0>        -0.1572
      6 C6         -3.1691    6.4504   -6.2483 C.ar      1 <0>         0.1459
      7 N1         -3.8146    5.9102   -5.1670 N.2       1 <0>        -0.5998
      8 C7         -3.7971    4.6128   -4.9735 C.2       1 <0>         0.6586
      9 N2         -3.2954    3.7781   -5.9470 N.pl3     1 <0>        -0.7266
     10 C8         -3.7651    2.4859   -6.0568 C.2       1 <0>         0.6266
     11 N3         -3.1593    1.6054   -6.9213 N.pl3     1 <0>        -0.7192
     12 C9         -3.6582    0.2329   -7.0379 C.3       1 <0>         0.1477
     13 C10        -2.8142   -0.5315   -8.0598 C.3       1 <0>        -0.1349
     14 C11        -3.3353   -1.9649   -8.1815 C.3       1 <0>        -0.1142
     15 C12        -2.4913   -2.7293   -9.2034 C.3       1 <0>        -0.1140
     16 C13        -3.0124   -4.1627   -9.3251 C.3       1 <0>        -0.1296
     17 C14        -2.1684   -4.9271  -10.3470 C.3       1 <0>         0.1400
     18 N4         -2.6673   -6.2996  -10.4635 N.pl3     1 <0>        -0.7054
     19 C15        -2.0614   -7.1801  -11.3281 C.2       1 <0>         0.6391
     20 N5         -1.1047   -6.7699  -12.1110 N.2       1 <0>        -0.8038
     21 N6         -2.4668   -8.4980  -11.3666 N.pl3     1 <0>        -0.6783
     22 C16        -3.5765   -8.8981  -10.6560 C.2       1 <0>         0.6574
     23 N7         -4.1758   -8.0570   -9.8472 N.2       1 <0>        -0.6208
     24 C17        -5.3538   -8.4094   -9.2424 C.ar      1 <0>         0.1399
     25 C18        -6.4909   -8.6570  -10.0134 C.ar      1 <0>        -0.1405
     26 C19        -7.6739   -9.0114   -9.3986 C.ar      1 <0>        -0.0911
     27 C20        -7.7349   -9.1217   -8.0198 C.ar      1 <0>        -0.0540
     28 C21        -6.6106   -8.8774   -7.2496 C.ar      1 <0>        -0.0908
     29 C22        -5.4203   -8.5279   -7.8530 C.ar      1 <0>        -0.1196
     30 Cl1        -9.2275   -9.5675   -7.2535 Cl        1 <0>        -0.0716
     31 N8         -4.0554  -10.1769  -10.7941 N.pl3     1 <0>        -0.8768
     32 N9         -4.7828    2.0999   -5.3412 N.2       1 <0>        -0.8081
     33 N10        -4.2790    4.0874   -3.8007 N.pl3     1 <0>        -0.8375
     34 Cl2        -1.0462    8.2266   -9.8037 Cl        1 <0>        -0.0721
     35 H1         -4.9833    6.9773   -7.2763 H         1 <0>         0.1316
     36 H2         -3.8153    7.9414   -9.2143 H         1 <0>         0.1345
     37 H3         -0.0506    7.0286   -7.4225 H         1 <0>         0.1340
     38 H4         -1.2001    6.0567   -5.4774 H         1 <0>         0.1284
     39 H5         -3.5914   -0.2616   -6.0688 H         1 <0>         0.0685
     40 H6         -4.6976    0.2507   -7.3657 H         1 <0>         0.0681
     41 H7         -2.8811   -0.0371   -9.0289 H         1 <0>         0.0690
     42 H8         -1.7748   -0.5494   -7.7319 H         1 <0>         0.0689
     43 H9         -3.2684   -2.4594   -7.2124 H         1 <0>         0.0668
     44 H10        -4.3747   -1.9471   -8.5093 H         1 <0>         0.0668
     45 H11        -2.5581   -2.2349  -10.1725 H         1 <0>         0.0657
     46 H12        -1.4519   -2.7472   -8.8755 H         1 <0>         0.0655
     47 H13        -2.9455   -4.6571   -8.3560 H         1 <0>         0.0669
     48 H14        -4.0517   -4.1448   -9.6529 H         1 <0>         0.0666
     49 H15        -2.2352   -4.4327  -11.3161 H         1 <0>         0.0612
     50 H16        -1.1290   -4.9450  -10.0191 H         1 <0>         0.0592
     51 H17        -3.4251   -6.5871   -9.9307 H         1 <0>         0.4266
     52 H18        -0.7270   -7.3714  -12.7716 H         1 <0>         0.3381
     53 H19        -1.9701   -9.1430  -11.8941 H         1 <0>         0.4231
     54 H20        -6.4446   -8.5709  -11.0890 H         1 <0>         0.1267
     55 H21        -8.5544   -9.2029   -9.9940 H         1 <0>         0.1324
     56 H22        -6.6645   -8.9647   -6.1745 H         1 <0>         0.1348
     57 H23        -4.5428   -8.3419   -7.2515 H         1 <0>         0.1333
     58 H24        -4.5878  -10.5743  -10.0874 H         1 <0>         0.4181
     59 H25        -3.8614  -10.6832  -11.5984 H         1 <0>         0.4041
     60 H26        -5.2065    2.7194   -4.7267 H         1 <0>         0.3506
     61 H27        -4.8084    4.6388   -3.2036 H         1 <0>         0.4234
     62 H28        -4.0901    3.1646   -3.5689 H         1 <0>         0.4176
     63 H29        -2.4015    1.8928   -7.4542 H         1 <0>         0.4036
     64 H30        -2.6115    4.0989   -6.5556 H         1 <0>         0.4128
@<TRIPOS>BOND
     1    1    6 ar
     2    1    2 ar
     3    1   35 1
     4    2    3 ar
     5    2   36 1
     6    3    4 ar
     7    3   34 1
     8    4    5 ar
     9    4   37 1
    10    5    6 ar
    11    5   38 1
    12    6    7 1
    13    7    8 2
    14    8    9 1
    15    8   33 1
    16    9   10 1
    17    9   64 1
    18   10   11 1
    19   10   32 2
    20   11   12 1
    21   11   63 1
    22   12   13 1
    23   12   39 1
    24   12   40 1
    25   13   14 1
    26   13   41 1
    27   13   42 1
    28   14   15 1
    29   14   43 1
    30   14   44 1
    31   15   16 1
    32   15   45 1
    33   15   46 1
    34   16   17 1
    35   16   47 1
    36   16   48 1
    37   17   18 1
    38   17   49 1
    39   17   50 1
    40   18   19 1
    41   18   51 1
    42   19   20 2
    43   19   21 1
    44   20   52 1
    45   21   22 1
    46   21   53 1
    47   22   23 2
    48   22   31 1
    49   23   24 1
    50   24   29 ar
    51   24   25 ar
    52   25   26 ar
    53   25   54 1
    54   26   27 ar
    55   26   55 1
    56   27   28 ar
    57   27   30 1
    58   28   29 ar
    59   28   56 1
    60   29   57 1
    61   31   58 1
    62   31   59 1
    63   32   60 1
    64   33   61 1
    65   33   62 1
@<TRIPOS>MOLECULE
ZINC18115268
   34    34     0     0     0
SMALL
USER_CHARGES

@<TRIPOS>ATOM
      1 C1         -0.0365    1.5010    0.0011 C.3       1 <0>        -0.1052
      2 C2         -0.0079   -0.0057   -0.0034 C.2       1 <0>         0.0925
      3 C3          0.0049   -0.8052   -1.0870 C.2       1 <0>         0.0314
      4 N1          0.0299   -2.0776   -0.6636 N.pl3     1 <0>        -0.4669
      5 C4          0.0331   -2.0970    0.6412 C.cat     1 <0>         0.3162
      6 N2          0.0160   -0.8246    1.0932 N.pl3     1 <0>        -0.5108
      7 H1          0.0181   -0.5434    2.0216 H         1 <0>         0.4678
      8 C5         -0.0069   -0.3499   -2.5235 C.3       1 <0>        -0.0419
      9 S1          1.6984   -0.1349   -3.1036 S.3       1 <0>        -0.2063
     10 C6          1.5114    0.4074   -4.8246 C.3       1 <0>        -0.1038
     11 C7          2.8934    0.6285   -5.4426 C.3       1 <0>         0.1227
     12 N3          2.7424    1.0664   -6.8325 N.pl3     1 <0>        -0.7533
     13 C8          3.8492    1.4270   -7.5637 C.2       1 <0>         0.6166
     14 N4          3.7071    1.9124   -8.7639 N.2       1 <0>        -0.6267
     15 C9          2.3670    2.1805   -9.2916 C.3       1 <0>         0.0422
     16 N5          5.1106    1.2747   -7.0262 N.pl3     1 <0>        -0.5926
     17 C10         6.2016    1.6301   -7.7469 C.1       1 <0>         0.4286
     18 N6          7.1163    1.9281   -8.3511 N.1       1 <0>        -0.3878
     19 H2          0.9841    1.8838   -0.0052 H         1 <0>         0.1105
     20 H3         -0.5635    1.8571   -0.8841 H         1 <0>         0.1067
     21 H4         -0.5506    1.8520    0.8958 H         1 <0>         0.0966
     22 H5          0.0507   -2.9838    1.2575 H         1 <0>         0.2703
     23 H6         -0.5079   -1.0981   -3.1377 H         1 <0>         0.1152
     24 H7         -0.5389    0.5984   -2.5998 H         1 <0>         0.1284
     25 H8          0.9784   -0.3568   -5.3904 H         1 <0>         0.0986
     26 H9          0.9474    1.3397   -4.8525 H         1 <0>         0.1009
     27 H10         3.4264    1.3927   -4.8768 H         1 <0>         0.0808
     28 H11         3.4574   -0.3038   -5.4147 H         1 <0>         0.0768
     29 H12         1.8614    1.1020   -7.2368 H         1 <0>         0.4179
     30 H13         1.8229    1.2418   -9.3956 H         1 <0>         0.0453
     31 H14         1.8312    2.8370   -8.6060 H         1 <0>         0.0450
     32 H15         2.4498    2.6623  -10.2658 H         1 <0>         0.0844
     33 H16         5.2165    0.9132   -6.1323 H         1 <0>         0.4336
     34 H17         0.0432   -2.8600   -1.2368 H         1 <0>         0.4663
@<TRIPOS>BOND
     1    1    2 1
     2    1   19 1
     3    1   20 1
     4    1   21 1
     5    2    6 1
     6    2    3 2
     7    3    4 1
     8    3    8 1
     9    4    5 2
    10    4   34 1
    11    5    6 1
    12    5   22 1
    13    6    7 1
    14    8    9 1
    15    8   23 1
    16    8   24 1
    17    9   10 1
    18   10   11 1
    19   10   25 1
    20   10   26 1
    21   11   12 1
    22   11   27 1
    23   11   28 1
    24   12   13 1
    25   12   29 1
    26   13   14 2
    27   13   16 1
    28   14   15 1
    29   15   30 1
    30   15   31 1
    31   15   32 1
    32   16   17 1
    33   16   33 1
    34   17   18 3
@<TRIPOS>MOLECULE
ZINC26894874
   32    34     0     0     0
SMALL
USER_CHARGES

@<TRIPOS>ATOM
      1 C1         -0.0620    1.5111    0.6837 C.ar      1 <0>        -0.0986
      2 C2          1.0982    2.2325    0.7979 C.ar      1 <0>        -0.0303
      3 C3          2.3087    1.5830    0.9913 C.ar      1 <0>        -0.0184
      4 C4          2.3602    0.1991    1.0715 C.ar      1 <0>        -0.0452
      5 C5          1.2125   -0.5424    0.9596 C.ar      1 <0>        -0.1116
      6 C6         -0.0217    0.1060    0.7635 C.ar      1 <0>         0.0500
      7 C7         -1.2150   -0.6503    0.6473 C.2       1 <0>        -0.0083
      8 C8         -1.2872   -2.0647    0.6177 C.2       1 <0>        -0.1504
      9 C9         -2.5956   -2.4054    0.4992 C.2       1 <0>        -0.1576
     10 C10        -3.3493   -1.1427    0.4550 C.2       1 <0>        -0.0098
     11 O1         -2.4532   -0.1364    0.5540 O.3       1 <0>        -0.1079
     12 C11        -4.7253   -1.0100    0.3378 C.2       1 <0>         0.1230
     13 N1         -5.2668    0.1949    0.1952 N.2       1 <0>        -0.1984
     14 N2         -4.5099    1.2278    0.0394 N.am      1 <0>        -0.5034
     15 C12        -4.3072    2.3336    0.9931 C.3       1 <0>         0.0538
     16 C13        -3.3269    3.2395    0.2751 C.2       1 <0>         0.4542
     17 O2         -2.8178    4.3963    0.7274 O.3       1 <0>        -0.6320
     18 N3         -3.0766    2.6672   -0.8726 N.2       1 <0>        -0.6589
     19 C14        -3.7372    1.5155   -1.0259 C.2       1 <0>         0.6552
     20 O3         -3.6526    0.8106   -2.0134 O.2       1 <0>        -0.5762
     21 N4          3.5548    2.3728    1.1127 N.pl3     1 <0>        -0.0120
     22 O4          3.5116    3.6869    1.0369 O.2       1 <0>        -0.1722
     23 O5          4.7067    1.7613    1.2964 O.3       1 <0>        -0.1862
     24 H1         -1.0039    2.0189    0.5376 H         1 <0>         0.1609
     25 H2          1.0697    3.3103    0.7366 H         1 <0>         0.1621
     26 H3          3.3081   -0.2961    1.2223 H         1 <0>         0.1580
     27 H4          1.2550   -1.6198    1.0216 H         1 <0>         0.1524
     28 H5         -0.4528   -2.7478    0.6779 H         1 <0>         0.1615
     29 H6         -3.0025   -3.4045    0.4473 H         1 <0>         0.1663
     30 H7         -5.3564   -1.8861    0.3626 H         1 <0>         0.1946
     31 H8         -5.2454    2.8554    1.1817 H         1 <0>         0.0984
     32 H9         -3.8778    1.9641    1.9244 H         1 <0>         0.0870
@<TRIPOS>BOND
     1    1    6 ar
     2    1    2 ar
     3    1   24 1
     4    2    3 ar
     5    2   25 1
     6    3    4 ar
     7    3   21 1
     8    4    5 ar
     9    4   26 1
    10    5    6 ar
    11    5   27 1
    12    6    7 1
    13    7   11 1
    14    7    8 2
    15    8    9 1
    16    8   28 1
    17    9   10 2
    18    9   29 1
    19   10   11 1
    20   10   12 1
    21   12   13 2
    22   12   30 1
    23   13   14 1
    24   14   19 am
    25   14   15 1
    26   15   16 1
    27   15   31 1
    28   15   32 1
    29   16   17 1
    30   16   18 2
    31   18   19 1
    32   19   20 2
    33   21   22 2
    34   21   23 1
@<TRIPOS>MOLECULE
ZINC19795961
   52    55     0     0     0
SMALL
USER_CHARGES

@<TRIPOS>ATOM
      1 C1          1.0093   -0.5699   -1.3510 C.3       1 <0>         0.0267
      2 N1          0.3759   -0.0855   -0.1173 N.3       1 <0>        -0.5102
      3 C2          0.7804    1.2962    0.1746 C.3       1 <0>         0.0294
      4 C3         -1.0865   -0.2004   -0.1962 C.3       1 <0>         0.0931
      5 H1         -1.4352    0.3291   -1.0829 H         1 <0>         0.0521
      6 C4         -1.4590   -1.6651   -0.3195 C.3       1 <0>        -0.0545
      7 H2         -0.8350   -2.1103   -1.0944 H         1 <0>         0.0822
      8 C5         -2.9196   -1.8502   -0.7217 C.3       1 <0>        -0.1138
      9 C6         -3.1124   -3.3070   -1.1523 C.3       1 <0>        -0.0182
     10 H3         -2.5842   -3.4726   -2.0913 H         1 <0>         0.0959
     11 C7         -4.5990   -3.5865   -1.3615 C.3       1 <0>         0.1453
     12 H4         -4.9676   -2.9804   -2.1891 H         1 <0>         0.0829
     13 C8         -4.8149   -5.0436   -1.6752 C.ar      1 <0>        -0.0577
     14 C9         -5.7996   -5.4214   -2.5651 C.ar      1 <0>        -0.0515
     15 C10        -6.0095   -6.7626   -2.8452 C.ar      1 <0>        -0.0722
     16 C11        -5.2382   -7.7336   -2.2371 C.ar      1 <0>        -0.1436
     17 C12        -4.2409   -7.3708   -1.3440 C.ar      1 <0>         0.1633
     18 C13        -4.0212   -6.0162   -1.0657 C.ar      1 <0>        -0.1483
     19 C14        -2.9399   -5.6082   -0.1465 C.2       1 <0>         0.4353
     20 O1         -2.3935   -6.4274    0.5702 O.2       1 <0>        -0.4219
     21 C15        -2.5582   -4.2374   -0.1071 C.2       1 <0>        -0.2443
     22 C16        -1.7158   -3.8393    0.8506 C.2       1 <0>         0.1882
     23 C17        -1.2100   -2.4228    0.9852 C.3       1 <0>         0.1171
     24 C18        -2.0242   -1.7564    2.0783 C.2       1 <0>         0.3932
     25 O2         -2.5863   -2.4222    2.9232 O.2       1 <0>        -0.5148
     26 C19        -2.1189   -0.2975    2.0956 C.2       1 <0>        -0.4965
     27 C20        -1.6908    0.4359    1.0195 C.2       1 <0>         0.3546
     28 O3         -1.8172    1.7707    1.0570 O.3       1 <0>        -0.6055
     29 C21        -2.6760    0.3860    3.2737 C.2       1 <0>         0.5875
     30 O4         -2.8666    1.5870    3.2465 O.2       1 <0>        -0.5665
     31 N2         -2.9751   -0.3188    4.3829 N.am      1 <0>        -0.8756
     32 O5          0.1818   -2.4175    1.3089 O.3       1 <0>        -0.4997
     33 O6         -1.2920   -4.7577    1.7416 O.3       1 <0>        -0.4586
     34 O7         -3.4828   -8.3228   -0.7437 O.3       1 <0>        -0.4740
     35 Cl1        -6.7792   -4.2130   -3.3358 Cl        1 <0>        -0.0574
     36 O8         -5.3160   -3.2498   -0.1721 O.3       1 <0>        -0.5310
     37 H5          2.0890   -0.4378   -1.2811 H         1 <0>         0.0631
     38 H6          0.7806   -1.6271   -1.4860 H         1 <0>         0.0663
     39 H7          0.6284   -0.0043   -2.2014 H         1 <0>         0.0161
     40 H8          0.3704    1.9629   -0.5841 H         1 <0>         0.0228
     41 H9          0.4026    1.5859    1.1552 H         1 <0>         0.0844
     42 H10         1.8682    1.3652    0.1694 H         1 <0>         0.0531
     43 H11        -3.5663   -1.6286    0.1273 H         1 <0>         0.0949
     44 H12        -3.1601   -1.1859   -1.5518 H         1 <0>         0.0809
     45 H13        -6.7816   -7.0503   -3.5434 H         1 <0>         0.1425
     46 H14        -5.4120   -8.7766   -2.4569 H         1 <0>         0.1443
     47 H15        -2.7554   -1.2623    4.4320 H         1 <0>         0.3987
     48 H16        -3.4102    0.1175    5.1321 H         1 <0>         0.3752
     49 H17         0.4067   -2.9460    2.0869 H         1 <0>         0.3664
     50 H18        -0.3432   -4.9394    1.6981 H         1 <0>         0.3904
     51 H19        -2.6830   -8.5561   -1.2347 H         1 <0>         0.3946
     52 H20        -6.2692   -3.4016   -0.2312 H         1 <0>         0.3754
@<TRIPOS>BOND
     1    1    2 1
     2    1   37 1
     3    1   38 1
     4    1   39 1
     5    2    3 1
     6    2    4 1
     7    3   40 1
     8    3   41 1
     9    3   42 1
    10    4    5 1
    11    4   27 1
    12    4    6 1
    13    6    7 1
    14    6   23 1
    15    6    8 1
    16    8    9 1
    17    8   43 1
    18    8   44 1
    19    9   10 1
    20    9   21 1
    21    9   11 1
    22   11   12 1
    23   11   13 1
    24   11   36 1
    25   13   18 ar
    26   13   14 ar
    27   14   15 ar
    28   14   35 1
    29   15   16 ar
    30   15   45 1
    31   16   17 ar
    32   16   46 1
    33   17   18 ar
    34   17   34 1
    35   18   19 1
    36   19   20 2
    37   19   21 1
    38   21   22 2
    39   22   23 1
    40   22   33 1
    41   23   24 1
    42   23   32 1
    43   24   25 2
    44   24   26 1
    45   26   27 2
    46   26   29 1
    47   27   28 1
    48   29   30 2
    49   29   31 am
    50   31   47 1
    51   31   48 1
    52   32   49 1
    53   33   50 1
    54   34   51 1
    55   36   52 1
